<?xml version='1.0' encoding='utf-8'?>
<routes xmlns:xsi="http://www.w3.org/2001/XMLSchema-instance"
        xsi:noNamespaceSchemaLocation="http://sumo.dlr.de/xsd/routes_file.xsd">
    <vType id="bus" vClass="bus"/>
    <trip id="dongchong_bus0" type="bus" depart="0.00" departLane="best" from="1163782197#2" to="-51691749#4">
        <stop edge="-51691749#4" parking="true" duration="10.00"/>
        <stop edge="1163782197#2" parking="true" duration="10.00"/>
        <stop edge="-51691749#4" parking="true" duration="10.00"/>
        <stop edge="1163782197#2" parking="true" duration="10.00"/>
        <stop edge="-51691749#4" parking="true" duration="10.00"/>
        <stop edge="1163782197#2" parking="true" duration="10.00"/>
        <stop edge="-51691749#4" parking="true" duration="10.00"/>
    </trip>
    <trip id="dongchong_bus1" type="bus" depart="0.00" departLane="best" from="1163782197#2" to="-51691749#4">
        <stop edge="-51691749#4" parking="true" duration="10.00"/>
        <stop edge="1163782197#2" parking="true" duration="10.00"/>
        <stop edge="-51691749#4" parking="true" duration="10.00"/>
        <stop edge="1163782197#2" parking="true" duration="10.00"/>
        <stop edge="-51691749#4" parking="true" duration="10.00"/>
        <stop edge="1163782197#2" parking="true" duration="10.00"/>
        <stop edge="-51691749#4" parking="true" duration="10.00"/>
    </trip>
    <trip id="dongchong_bus2" type="bus" depart="0.00" departLane="best" from="1163782197#2" to="-51691749#4">
        <stop edge="-51691749#4" parking="true" duration="10.00"/>
        <stop edge="1163782197#2" parking="true" duration="10.00"/>
        <stop edge="-51691749#4" parking="true" duration="10.00"/>
        <stop edge="1163782197#2" parking="true" duration="10.00"/>
        <stop edge="-51691749#4" parking="true" duration="10.00"/>
        <stop edge="1163782197#2" parking="true" duration="10.00"/>
        <stop edge="-51691749#4" parking="true" duration="10.00"/>
    </trip>
    <trip id="dongchong_bus3" type="bus" depart="0.00" departLane="best" from="1163782197#2" to="-51691749#4">
        <stop edge="-51691749#4" parking="true" duration="10.00"/>
        <stop edge="1163782197#2" parking="true" duration="10.00"/>
        <stop edge="-51691749#4" parking="true" duration="10.00"/>
        <stop edge="1163782197#2" parking="true" duration="10.00"/>
        <stop edge="-51691749#4" parking="true" duration="10.00"/>
        <stop edge="1163782197#2" parking="true" duration="10.00"/>
        <stop edge="-51691749#4" parking="true" duration="10.00"/>
    </trip>
    <trip id="dongchong_bus4" type="bus" depart="0.00" departLane="best" from="1163782197#2" to="-51691749#4">
        <stop edge="-51691749#4" parking="true" duration="10.00"/>
        <stop edge="1163782197#2" parking="true" duration="10.00"/>
        <stop edge="-51691749#4" parking="true" duration="10.00"/>
        <stop edge="1163782197#2" parking="true" duration="10.00"/>
        <stop edge="-51691749#4" parking="true" duration="10.00"/>
        <stop edge="1163782197#2" parking="true" duration="10.00"/>
        <stop edge="-51691749#4" parking="true" duration="10.00"/>
    </trip>
    <trip id="dongchong_bus5" type="bus" depart="0.00" departLane="best" from="1163782197#2" to="-51691749#4">
        <stop edge="-51691749#4" parking="true" duration="10.00"/>
        <stop edge="1163782197#2" parking="true" duration="10.00"/>
        <stop edge="-51691749#4" parking="true" duration="10.00"/>
        <stop edge="1163782197#2" parking="true" duration="10.00"/>
        <stop edge="-51691749#4" parking="true" duration="10.00"/>
        <stop edge="1163782197#2" parking="true" duration="10.00"/>
        <stop edge="-51691749#4" parking="true" duration="10.00"/>
    </trip>
    <trip id="dongchong_bus6" type="bus" depart="0.00" departLane="best" from="1163782197#2" to="-51691749#4">
        <stop edge="-51691749#4" parking="true" duration="10.00"/>
        <stop edge="1163782197#2" parking="true" duration="10.00"/>
        <stop edge="-51691749#4" parking="true" duration="10.00"/>
        <stop edge="1163782197#2" parking="true" duration="10.00"/>
        <stop edge="-51691749#4" parking="true" duration="10.00"/>
        <stop edge="1163782197#2" parking="true" duration="10.00"/>
        <stop edge="-51691749#4" parking="true" duration="10.00"/>
    </trip>
    <trip id="dongchong_bus7" type="bus" depart="0.00" departLane="best" from="1163782197#2" to="-51691749#4">
        <stop edge="-51691749#4" parking="true" duration="10.00"/>
        <stop edge="1163782197#2" parking="true" duration="10.00"/>
        <stop edge="-51691749#4" parking="true" duration="10.00"/>
        <stop edge="1163782197#2" parking="true" duration="10.00"/>
        <stop edge="-51691749#4" parking="true" duration="10.00"/>
        <stop edge="1163782197#2" parking="true" duration="10.00"/>
        <stop edge="-51691749#4" parking="true" duration="10.00"/>
    </trip>
    <trip id="dongchong_bus8" type="bus" depart="0.00" departLane="best" from="1163782197#2" to="-51691749#4">
        <stop edge="-51691749#4" parking="true" duration="10.00"/>
        <stop edge="1163782197#2" parking="true" duration="10.00"/>
        <stop edge="-51691749#4" parking="true" duration="10.00"/>
        <stop edge="1163782197#2" parking="true" duration="10.00"/>
        <stop edge="-51691749#4" parking="true" duration="10.00"/>
        <stop edge="1163782197#2" parking="true" duration="10.00"/>
        <stop edge="-51691749#4" parking="true" duration="10.00"/>
    </trip>
    <trip id="dongchong_bus9" type="bus" depart="0.00" departLane="best" from="1163782197#2" to="-51691749#4">
        <stop edge="-51691749#4" parking="true" duration="10.00"/>
        <stop edge="1163782197#2" parking="true" duration="10.00"/>
        <stop edge="-51691749#4" parking="true" duration="10.00"/>
        <stop edge="1163782197#2" parking="true" duration="10.00"/>
        <stop edge="-51691749#4" parking="true" duration="10.00"/>
        <stop edge="1163782197#2" parking="true" duration="10.00"/>
        <stop edge="-51691749#4" parking="true" duration="10.00"/>
    </trip>
    <trip id="beibi_bus0" type="bus" depart="0.00" departLane="best" from="296185646#0" to="715792677">
        <stop edge="715792677" parking="true" duration="10.00"/>
        <stop edge="296185646#0" parking="true" duration="10.00"/>
        <stop edge="715792677" parking="true" duration="10.00"/>
    </trip>
    <trip id="beibi_bus1" type="bus" depart="0.00" departLane="best" from="296185646#0" to="715792677">
        <stop edge="715792677" parking="true" duration="10.00"/>
        <stop edge="296185646#0" parking="true" duration="10.00"/>
        <stop edge="715792677" parking="true" duration="10.00"/>
    </trip>
    <trip id="beibi_bus2" type="bus" depart="0.00" departLane="best" from="296185646#0" to="715792677">
        <stop edge="715792677" parking="true" duration="10.00"/>
        <stop edge="296185646#0" parking="true" duration="10.00"/>
        <stop edge="715792677" parking="true" duration="10.00"/>
    </trip>
    <trip id="beibi_bus3" type="bus" depart="0.00" departLane="best" from="296185646#0" to="715792677">
        <stop edge="715792677" parking="true" duration="10.00"/>
        <stop edge="296185646#0" parking="true" duration="10.00"/>
        <stop edge="715792677" parking="true" duration="10.00"/>
    </trip>
    <trip id="beibi_bus4" type="bus" depart="0.00" departLane="best" from="296185646#0" to="715792677">
        <stop edge="715792677" parking="true" duration="10.00"/>
        <stop edge="296185646#0" parking="true" duration="10.00"/>
        <stop edge="715792677" parking="true" duration="10.00"/>
    </trip>
    <trip id="beibi_bus5" type="bus" depart="0.00" departLane="best" from="296185646#0" to="715792677">
        <stop edge="715792677" parking="true" duration="10.00"/>
        <stop edge="296185646#0" parking="true" duration="10.00"/>
        <stop edge="715792677" parking="true" duration="10.00"/>
    </trip>
    <trip id="beibi_bus6" type="bus" depart="0.00" departLane="best" from="296185646#0" to="715792677">
        <stop edge="715792677" parking="true" duration="10.00"/>
        <stop edge="296185646#0" parking="true" duration="10.00"/>
        <stop edge="715792677" parking="true" duration="10.00"/>
    </trip>
    <trip id="beibi_bus7" type="bus" depart="0.00" departLane="best" from="296185646#0" to="715792677">
        <stop edge="715792677" parking="true" duration="10.00"/>
        <stop edge="296185646#0" parking="true" duration="10.00"/>
        <stop edge="715792677" parking="true" duration="10.00"/>
    </trip>
    <trip id="beibi_bus8" type="bus" depart="0.00" departLane="best" from="296185646#0" to="715792677">
        <stop edge="715792677" parking="true" duration="10.00"/>
        <stop edge="296185646#0" parking="true" duration="10.00"/>
        <stop edge="715792677" parking="true" duration="10.00"/>
    </trip>
    <trip id="beibi_bus9" type="bus" depart="0.00" departLane="best" from="296185646#0" to="715792677">
        <stop edge="715792677" parking="true" duration="10.00"/>
        <stop edge="296185646#0" parking="true" duration="10.00"/>
        <stop edge="715792677" parking="true" duration="10.00"/>
    </trip>
    <trip id="beigang_bus0" type="bus" depart="0.00" departLane="best" from="1068471749#0" to="1172895341#1">
        <stop edge="1172895341#1" parking="true" duration="10.00"/>
        <stop edge="1068471749#0" parking="true" duration="10.00"/>
        <stop edge="1172895341#1" parking="true" duration="10.00"/>
        <stop edge="1068471749#0" parking="true" duration="10.00"/>
        <stop edge="1172895341#1" parking="true" duration="10.00"/>
        <stop edge="1068471749#0" parking="true" duration="10.00"/>
        <stop edge="1172895341#1" parking="true" duration="10.00"/>
        <stop edge="1068471749#0" parking="true" duration="10.00"/>
        <stop edge="1172895341#1" parking="true" duration="10.00"/>
    </trip>
    <trip id="beigang_bus1" type="bus" depart="0.00" departLane="best" from="1068471749#0" to="1172895341#1">
        <stop edge="1172895341#1" parking="true" duration="10.00"/>
        <stop edge="1068471749#0" parking="true" duration="10.00"/>
        <stop edge="1172895341#1" parking="true" duration="10.00"/>
        <stop edge="1068471749#0" parking="true" duration="10.00"/>
        <stop edge="1172895341#1" parking="true" duration="10.00"/>
        <stop edge="1068471749#0" parking="true" duration="10.00"/>
        <stop edge="1172895341#1" parking="true" duration="10.00"/>
        <stop edge="1068471749#0" parking="true" duration="10.00"/>
        <stop edge="1172895341#1" parking="true" duration="10.00"/>
    </trip>
    <trip id="beigang_bus2" type="bus" depart="0.00" departLane="best" from="1068471749#0" to="1172895341#1">
        <stop edge="1172895341#1" parking="true" duration="10.00"/>
        <stop edge="1068471749#0" parking="true" duration="10.00"/>
        <stop edge="1172895341#1" parking="true" duration="10.00"/>
        <stop edge="1068471749#0" parking="true" duration="10.00"/>
        <stop edge="1172895341#1" parking="true" duration="10.00"/>
        <stop edge="1068471749#0" parking="true" duration="10.00"/>
        <stop edge="1172895341#1" parking="true" duration="10.00"/>
        <stop edge="1068471749#0" parking="true" duration="10.00"/>
        <stop edge="1172895341#1" parking="true" duration="10.00"/>
    </trip>
    <trip id="beigang_bus3" type="bus" depart="0.00" departLane="best" from="1068471749#0" to="1172895341#1">
        <stop edge="1172895341#1" parking="true" duration="10.00"/>
        <stop edge="1068471749#0" parking="true" duration="10.00"/>
        <stop edge="1172895341#1" parking="true" duration="10.00"/>
        <stop edge="1068471749#0" parking="true" duration="10.00"/>
        <stop edge="1172895341#1" parking="true" duration="10.00"/>
        <stop edge="1068471749#0" parking="true" duration="10.00"/>
        <stop edge="1172895341#1" parking="true" duration="10.00"/>
        <stop edge="1068471749#0" parking="true" duration="10.00"/>
        <stop edge="1172895341#1" parking="true" duration="10.00"/>
    </trip>
    <trip id="beigang_bus4" type="bus" depart="0.00" departLane="best" from="1068471749#0" to="1172895341#1">
        <stop edge="1172895341#1" parking="true" duration="10.00"/>
        <stop edge="1068471749#0" parking="true" duration="10.00"/>
        <stop edge="1172895341#1" parking="true" duration="10.00"/>
        <stop edge="1068471749#0" parking="true" duration="10.00"/>
        <stop edge="1172895341#1" parking="true" duration="10.00"/>
        <stop edge="1068471749#0" parking="true" duration="10.00"/>
        <stop edge="1172895341#1" parking="true" duration="10.00"/>
        <stop edge="1068471749#0" parking="true" duration="10.00"/>
        <stop edge="1172895341#1" parking="true" duration="10.00"/>
    </trip>
    <trip id="beigang_bus5" type="bus" depart="0.00" departLane="best" from="1068471749#0" to="1172895341#1">
        <stop edge="1172895341#1" parking="true" duration="10.00"/>
        <stop edge="1068471749#0" parking="true" duration="10.00"/>
        <stop edge="1172895341#1" parking="true" duration="10.00"/>
        <stop edge="1068471749#0" parking="true" duration="10.00"/>
        <stop edge="1172895341#1" parking="true" duration="10.00"/>
        <stop edge="1068471749#0" parking="true" duration="10.00"/>
        <stop edge="1172895341#1" parking="true" duration="10.00"/>
        <stop edge="1068471749#0" parking="true" duration="10.00"/>
        <stop edge="1172895341#1" parking="true" duration="10.00"/>
    </trip>
    <trip id="beigang_bus6" type="bus" depart="0.00" departLane="best" from="1068471749#0" to="1172895341#1">
        <stop edge="1172895341#1" parking="true" duration="10.00"/>
        <stop edge="1068471749#0" parking="true" duration="10.00"/>
        <stop edge="1172895341#1" parking="true" duration="10.00"/>
        <stop edge="1068471749#0" parking="true" duration="10.00"/>
        <stop edge="1172895341#1" parking="true" duration="10.00"/>
        <stop edge="1068471749#0" parking="true" duration="10.00"/>
        <stop edge="1172895341#1" parking="true" duration="10.00"/>
        <stop edge="1068471749#0" parking="true" duration="10.00"/>
        <stop edge="1172895341#1" parking="true" duration="10.00"/>
    </trip>
    <trip id="beigang_bus7" type="bus" depart="0.00" departLane="best" from="1068471749#0" to="1172895341#1">
        <stop edge="1172895341#1" parking="true" duration="10.00"/>
        <stop edge="1068471749#0" parking="true" duration="10.00"/>
        <stop edge="1172895341#1" parking="true" duration="10.00"/>
        <stop edge="1068471749#0" parking="true" duration="10.00"/>
        <stop edge="1172895341#1" parking="true" duration="10.00"/>
        <stop edge="1068471749#0" parking="true" duration="10.00"/>
        <stop edge="1172895341#1" parking="true" duration="10.00"/>
        <stop edge="1068471749#0" parking="true" duration="10.00"/>
        <stop edge="1172895341#1" parking="true" duration="10.00"/>
    </trip>
    <trip id="beigang_bus8" type="bus" depart="0.00" departLane="best" from="1068471749#0" to="1172895341#1">
        <stop edge="1172895341#1" parking="true" duration="10.00"/>
        <stop edge="1068471749#0" parking="true" duration="10.00"/>
        <stop edge="1172895341#1" parking="true" duration="10.00"/>
        <stop edge="1068471749#0" parking="true" duration="10.00"/>
        <stop edge="1172895341#1" parking="true" duration="10.00"/>
        <stop edge="1068471749#0" parking="true" duration="10.00"/>
        <stop edge="1172895341#1" parking="true" duration="10.00"/>
        <stop edge="1068471749#0" parking="true" duration="10.00"/>
        <stop edge="1172895341#1" parking="true" duration="10.00"/>
    </trip>
    <trip id="beigang_bus9" type="bus" depart="0.00" departLane="best" from="1068471749#0" to="1172895341#1">
        <stop edge="1172895341#1" parking="true" duration="10.00"/>
        <stop edge="1068471749#0" parking="true" duration="10.00"/>
        <stop edge="1172895341#1" parking="true" duration="10.00"/>
        <stop edge="1068471749#0" parking="true" duration="10.00"/>
        <stop edge="1172895341#1" parking="true" duration="10.00"/>
        <stop edge="1068471749#0" parking="true" duration="10.00"/>
        <stop edge="1172895341#1" parking="true" duration="10.00"/>
        <stop edge="1068471749#0" parking="true" duration="10.00"/>
        <stop edge="1172895341#1" parking="true" duration="10.00"/>
    </trip>
    <trip id="houshan_bus0" type="bus" depart="0.00" departLane="best" from="1068471755#2" to="-777284203">
        <stop edge="-777284203" parking="true" duration="10.00"/>
        <stop edge="1068471755#2" parking="true" duration="10.00"/>
        <stop edge="-777284203" parking="true" duration="10.00"/>
        <stop edge="1068471755#2" parking="true" duration="10.00"/>
        <stop edge="-777284203" parking="true" duration="10.00"/>
        <stop edge="1068471755#2" parking="true" duration="10.00"/>
        <stop edge="-777284203" parking="true" duration="10.00"/>
        <stop edge="1068471755#2" parking="true" duration="10.00"/>
        <stop edge="-777284203" parking="true" duration="10.00"/>
    </trip>
    <trip id="houshan_bus1" type="bus" depart="0.00" departLane="best" from="1068471755#2" to="-777284203">
        <stop edge="-777284203" parking="true" duration="10.00"/>
        <stop edge="1068471755#2" parking="true" duration="10.00"/>
        <stop edge="-777284203" parking="true" duration="10.00"/>
        <stop edge="1068471755#2" parking="true" duration="10.00"/>
        <stop edge="-777284203" parking="true" duration="10.00"/>
        <stop edge="1068471755#2" parking="true" duration="10.00"/>
        <stop edge="-777284203" parking="true" duration="10.00"/>
        <stop edge="1068471755#2" parking="true" duration="10.00"/>
        <stop edge="-777284203" parking="true" duration="10.00"/>
    </trip>
    <trip id="houshan_bus2" type="bus" depart="0.00" departLane="best" from="1068471755#2" to="-777284203">
        <stop edge="-777284203" parking="true" duration="10.00"/>
        <stop edge="1068471755#2" parking="true" duration="10.00"/>
        <stop edge="-777284203" parking="true" duration="10.00"/>
        <stop edge="1068471755#2" parking="true" duration="10.00"/>
        <stop edge="-777284203" parking="true" duration="10.00"/>
        <stop edge="1068471755#2" parking="true" duration="10.00"/>
        <stop edge="-777284203" parking="true" duration="10.00"/>
        <stop edge="1068471755#2" parking="true" duration="10.00"/>
        <stop edge="-777284203" parking="true" duration="10.00"/>
    </trip>
    <trip id="houshan_bus3" type="bus" depart="0.00" departLane="best" from="1068471755#2" to="-777284203">
        <stop edge="-777284203" parking="true" duration="10.00"/>
        <stop edge="1068471755#2" parking="true" duration="10.00"/>
        <stop edge="-777284203" parking="true" duration="10.00"/>
        <stop edge="1068471755#2" parking="true" duration="10.00"/>
        <stop edge="-777284203" parking="true" duration="10.00"/>
        <stop edge="1068471755#2" parking="true" duration="10.00"/>
        <stop edge="-777284203" parking="true" duration="10.00"/>
        <stop edge="1068471755#2" parking="true" duration="10.00"/>
        <stop edge="-777284203" parking="true" duration="10.00"/>
    </trip>
    <trip id="houshan_bus4" type="bus" depart="0.00" departLane="best" from="1068471755#2" to="-777284203">
        <stop edge="-777284203" parking="true" duration="10.00"/>
        <stop edge="1068471755#2" parking="true" duration="10.00"/>
        <stop edge="-777284203" parking="true" duration="10.00"/>
        <stop edge="1068471755#2" parking="true" duration="10.00"/>
        <stop edge="-777284203" parking="true" duration="10.00"/>
        <stop edge="1068471755#2" parking="true" duration="10.00"/>
        <stop edge="-777284203" parking="true" duration="10.00"/>
        <stop edge="1068471755#2" parking="true" duration="10.00"/>
        <stop edge="-777284203" parking="true" duration="10.00"/>
    </trip>
    <trip id="houshan_bus5" type="bus" depart="0.00" departLane="best" from="1068471755#2" to="-777284203">
        <stop edge="-777284203" parking="true" duration="10.00"/>
        <stop edge="1068471755#2" parking="true" duration="10.00"/>
        <stop edge="-777284203" parking="true" duration="10.00"/>
        <stop edge="1068471755#2" parking="true" duration="10.00"/>
        <stop edge="-777284203" parking="true" duration="10.00"/>
        <stop edge="1068471755#2" parking="true" duration="10.00"/>
        <stop edge="-777284203" parking="true" duration="10.00"/>
        <stop edge="1068471755#2" parking="true" duration="10.00"/>
        <stop edge="-777284203" parking="true" duration="10.00"/>
    </trip>
    <trip id="houshan_bus6" type="bus" depart="0.00" departLane="best" from="1068471755#2" to="-777284203">
        <stop edge="-777284203" parking="true" duration="10.00"/>
        <stop edge="1068471755#2" parking="true" duration="10.00"/>
        <stop edge="-777284203" parking="true" duration="10.00"/>
        <stop edge="1068471755#2" parking="true" duration="10.00"/>
        <stop edge="-777284203" parking="true" duration="10.00"/>
        <stop edge="1068471755#2" parking="true" duration="10.00"/>
        <stop edge="-777284203" parking="true" duration="10.00"/>
        <stop edge="1068471755#2" parking="true" duration="10.00"/>
        <stop edge="-777284203" parking="true" duration="10.00"/>
    </trip>
    <trip id="houshan_bus7" type="bus" depart="0.00" departLane="best" from="1068471755#2" to="-777284203">
        <stop edge="-777284203" parking="true" duration="10.00"/>
        <stop edge="1068471755#2" parking="true" duration="10.00"/>
        <stop edge="-777284203" parking="true" duration="10.00"/>
        <stop edge="1068471755#2" parking="true" duration="10.00"/>
        <stop edge="-777284203" parking="true" duration="10.00"/>
        <stop edge="1068471755#2" parking="true" duration="10.00"/>
        <stop edge="-777284203" parking="true" duration="10.00"/>
        <stop edge="1068471755#2" parking="true" duration="10.00"/>
        <stop edge="-777284203" parking="true" duration="10.00"/>
    </trip>
    <trip id="houshan_bus8" type="bus" depart="0.00" departLane="best" from="1068471755#2" to="-777284203">
        <stop edge="-777284203" parking="true" duration="10.00"/>
        <stop edge="1068471755#2" parking="true" duration="10.00"/>
        <stop edge="-777284203" parking="true" duration="10.00"/>
        <stop edge="1068471755#2" parking="true" duration="10.00"/>
        <stop edge="-777284203" parking="true" duration="10.00"/>
        <stop edge="1068471755#2" parking="true" duration="10.00"/>
        <stop edge="-777284203" parking="true" duration="10.00"/>
        <stop edge="1068471755#2" parking="true" duration="10.00"/>
        <stop edge="-777284203" parking="true" duration="10.00"/>
    </trip>
    <trip id="houshan_bus9" type="bus" depart="0.00" departLane="best" from="1068471755#2" to="-777284203">
        <stop edge="-777284203" parking="true" duration="10.00"/>
        <stop edge="1068471755#2" parking="true" duration="10.00"/>
        <stop edge="-777284203" parking="true" duration="10.00"/>
        <stop edge="1068471755#2" parking="true" duration="10.00"/>
        <stop edge="-777284203" parking="true" duration="10.00"/>
        <stop edge="1068471755#2" parking="true" duration="10.00"/>
        <stop edge="-777284203" parking="true" duration="10.00"/>
        <stop edge="1068471755#2" parking="true" duration="10.00"/>
        <stop edge="-777284203" parking="true" duration="10.00"/>
    </trip>
    <trip id="panqian_bus0" type="bus" depart="0.00" departLane="best" from="1068471755#2" to="977360507#0">
        <stop edge="977360507#0" parking="true" duration="10.00"/>
        <stop edge="1068471755#2" parking="true" duration="10.00"/>
        <stop edge="977360507#0" parking="true" duration="10.00"/>
        <stop edge="1068471755#2" parking="true" duration="10.00"/>
        <stop edge="977360507#0" parking="true" duration="10.00"/>
    </trip>
    <trip id="panqian_bus1" type="bus" depart="0.00" departLane="best" from="1068471755#2" to="977360507#0">
        <stop edge="977360507#0" parking="true" duration="10.00"/>
        <stop edge="1068471755#2" parking="true" duration="10.00"/>
        <stop edge="977360507#0" parking="true" duration="10.00"/>
        <stop edge="1068471755#2" parking="true" duration="10.00"/>
        <stop edge="977360507#0" parking="true" duration="10.00"/>
    </trip>
    <trip id="panqian_bus2" type="bus" depart="0.00" departLane="best" from="1068471755#2" to="977360507#0">
        <stop edge="977360507#0" parking="true" duration="10.00"/>
        <stop edge="1068471755#2" parking="true" duration="10.00"/>
        <stop edge="977360507#0" parking="true" duration="10.00"/>
        <stop edge="1068471755#2" parking="true" duration="10.00"/>
        <stop edge="977360507#0" parking="true" duration="10.00"/>
    </trip>
    <trip id="panqian_bus3" type="bus" depart="0.00" departLane="best" from="1068471755#2" to="977360507#0">
        <stop edge="977360507#0" parking="true" duration="10.00"/>
        <stop edge="1068471755#2" parking="true" duration="10.00"/>
        <stop edge="977360507#0" parking="true" duration="10.00"/>
        <stop edge="1068471755#2" parking="true" duration="10.00"/>
        <stop edge="977360507#0" parking="true" duration="10.00"/>
    </trip>
    <trip id="panqian_bus4" type="bus" depart="0.00" departLane="best" from="1068471755#2" to="977360507#0">
        <stop edge="977360507#0" parking="true" duration="10.00"/>
        <stop edge="1068471755#2" parking="true" duration="10.00"/>
        <stop edge="977360507#0" parking="true" duration="10.00"/>
        <stop edge="1068471755#2" parking="true" duration="10.00"/>
        <stop edge="977360507#0" parking="true" duration="10.00"/>
    </trip>
    <trip id="panqian_bus5" type="bus" depart="0.00" departLane="best" from="1068471755#2" to="977360507#0">
        <stop edge="977360507#0" parking="true" duration="10.00"/>
        <stop edge="1068471755#2" parking="true" duration="10.00"/>
        <stop edge="977360507#0" parking="true" duration="10.00"/>
        <stop edge="1068471755#2" parking="true" duration="10.00"/>
        <stop edge="977360507#0" parking="true" duration="10.00"/>
    </trip>
    <trip id="panqian_bus6" type="bus" depart="0.00" departLane="best" from="1068471755#2" to="977360507#0">
        <stop edge="977360507#0" parking="true" duration="10.00"/>
        <stop edge="1068471755#2" parking="true" duration="10.00"/>
        <stop edge="977360507#0" parking="true" duration="10.00"/>
        <stop edge="1068471755#2" parking="true" duration="10.00"/>
        <stop edge="977360507#0" parking="true" duration="10.00"/>
    </trip>
    <trip id="panqian_bus7" type="bus" depart="0.00" departLane="best" from="1068471755#2" to="977360507#0">
        <stop edge="977360507#0" parking="true" duration="10.00"/>
        <stop edge="1068471755#2" parking="true" duration="10.00"/>
        <stop edge="977360507#0" parking="true" duration="10.00"/>
        <stop edge="1068471755#2" parking="true" duration="10.00"/>
        <stop edge="977360507#0" parking="true" duration="10.00"/>
    </trip>
    <trip id="panqian_bus8" type="bus" depart="0.00" departLane="best" from="1068471755#2" to="977360507#0">
        <stop edge="977360507#0" parking="true" duration="10.00"/>
        <stop edge="1068471755#2" parking="true" duration="10.00"/>
        <stop edge="977360507#0" parking="true" duration="10.00"/>
        <stop edge="1068471755#2" parking="true" duration="10.00"/>
        <stop edge="977360507#0" parking="true" duration="10.00"/>
    </trip>
    <trip id="panqian_bus9" type="bus" depart="0.00" departLane="best" from="1068471755#2" to="977360507#0">
        <stop edge="977360507#0" parking="true" duration="10.00"/>
        <stop edge="1068471755#2" parking="true" duration="10.00"/>
        <stop edge="977360507#0" parking="true" duration="10.00"/>
        <stop edge="1068471755#2" parking="true" duration="10.00"/>
        <stop edge="977360507#0" parking="true" duration="10.00"/>
    </trip>
    <trip id="xiahu_bus0" type="bus" depart="0.00" departLane="best" from="229540619#2" to="-778378294">
        <stop edge="-778378294" parking="true" duration="10.00"/>
        <stop edge="229540619#2" parking="true" duration="10.00"/>
        <stop edge="-778378294" parking="true" duration="10.00"/>
    </trip>
    <trip id="xiahu_bus1" type="bus" depart="0.00" departLane="best" from="229540619#2" to="-778378294">
        <stop edge="-778378294" parking="true" duration="10.00"/>
        <stop edge="229540619#2" parking="true" duration="10.00"/>
        <stop edge="-778378294" parking="true" duration="10.00"/>
    </trip>
    <trip id="xiahu_bus2" type="bus" depart="0.00" departLane="best" from="229540619#2" to="-778378294">
        <stop edge="-778378294" parking="true" duration="10.00"/>
        <stop edge="229540619#2" parking="true" duration="10.00"/>
        <stop edge="-778378294" parking="true" duration="10.00"/>
    </trip>
    <trip id="xiahu_bus3" type="bus" depart="0.00" departLane="best" from="229540619#2" to="-778378294">
        <stop edge="-778378294" parking="true" duration="10.00"/>
        <stop edge="229540619#2" parking="true" duration="10.00"/>
        <stop edge="-778378294" parking="true" duration="10.00"/>
    </trip>
    <trip id="xiahu_bus4" type="bus" depart="0.00" departLane="best" from="229540619#2" to="-778378294">
        <stop edge="-778378294" parking="true" duration="10.00"/>
        <stop edge="229540619#2" parking="true" duration="10.00"/>