<?xml version="1.0" encoding="UTF-8"?>

<!-- generated on 2023-06-03 12:39:26 by Eclipse SUMO polyconvert Version 1.17.0
<configuration xmlns:xsi="http://www.w3.org/2001/XMLSchema-instance" xsi:noNamespaceSchemaLocation="http://sumo.dlr.de/xsd/polyconvertConfiguration.xsd">

    <input>
        <net-file value="osm.net.xml.gz"/>
        <osm-files value="osm_bbox.osm.xml.gz"/>
        <osm.keep-full-type value="true"/>
        <type-file value="${SUMO_HOME}/data/typemap/osmPolyconvert.typ.xml"/>
    </input>

    <output>
        <output-file value="osm.poly.xml.gz"/>
    </output>

    <report>
        <verbose value="true"/>
    </report>

</configuration>
-->

<additional xmlns:xsi="http://www.w3.org/2001/XMLSchema-instance" xsi:noNamespaceSchemaLocation="http://sumo.dlr.de/xsd/additional_file.xsd">
    <location netOffset="-13335313.47,-3060565.88" convBoundary="-22794.29,-320.47,54698.31,98275.52" origBoundary="119.576583,26.485880,120.284522,27.282743" projParameter="+proj=merc +a=6378137 +b=6378137 +lat_ts=0.0 +lon_0=0.0 +x_0=0.0 +y_0=0 +k=1.0 +units=m +nadgrids=@null +wktext +no_defs"/>

    <poly id="1002010035" type="landuse.greenfield" color="242,242,204" fill="1" layer="-3.00" shape="27130.420471,47460.681896 27133.570813,47080.921219 27442.604851,47050.695553 27426.107303,47432.839089 27130.420471,47460.681896"/>
    <poly id="1002010036" type="landuse.residential" color="235,235,227" fill="1" layer="-3.00" shape="26308.826970,47885.768896 26317.098008,47542.688083 26668.466849,47535.162613 26665.450090,47866.212192 26578.932582,47889.537964 26308.826970,47885.768896"/>
    <poly id="1002010037" type="landuse.greenfield" color="242,242,204" fill="1" layer="-3.00" shape="26314.838222,47487.763479 26318.600821,47187.560180 26654.162294,47174.768454 26663.947277,47490.771160 26314.838222,47487.763479"/>
    <poly id="1002010038" type="amenity.hospital" color="237,199,199" fill="1" layer="-1.00" shape="25937.153454,47492.281241 25907.809636,47463.689572 25910.058290,47205.618373 25937.153454,47184.552563 26247.133708,47178.537332 26274.963581,47205.618373 26274.963581,47471.963803 26248.636521,47499.045407 25937.153454,47492.281241"/>
    <poly id="1002010039" type="landuse.residential" color="235,235,227" fill="1" layer="-3.00" shape="25560.670936,47157.084692 25577.224144,46856.139661 25692.339630,46853.880882 25690.079844,46981.783275 25718.666689,46981.034502 25723.932101,47016.389127 25754.032891,47029.180710 25753.275919,47151.818255 25560.670936,47157.084692"/>
    <poly id="1002010040" type="landuse.residential" color="235,235,227" fill="1" layer="-3.00" shape="25595.291298,47501.591330 25559.925095,47473.760921 25563.687694,47406.793446 25768.337446,47410.562386 25769.840259,47301.463211 25842.821317,47300.714421 25838.312878,47495.575963 25595.291298,47501.591330"/>
    <poly id="1002010041" type="man_made.monitoring_station" color="255,230,230" fill="1" layer="-1.00" shape="25162.392062,47599.434995 25162.826208,47570.031904 25193.138505,47570.493667 25192.704359,47599.896759 25162.392062,47599.434995"/>
    <poly id="1002010042" type="landuse.residential" color="235,235,227" fill="1" layer="-3.00" shape="25517.901988,47266.457306 25372.696844,47260.442040 25273.377594,47434.985641 25399.023903,47589.975081 25414.820139,47763.773944 25475.767560,47709.609772 25525.427185,47596.002967 25509.619817,47382.320320 25517.901988,47266.457306"/>
    <poly id="1002010043" type="landuse.residential" color="235,235,227" fill="1" layer="-3.00" shape="25371.182899,47926.292670 25351.624064,47908.982377 25362.911861,47860.833167 25493.823582,47733.684098 25540.477580,47669.735589 25589.380233,48046.679043 25371.182899,47926.292670"/>
    <poly id="1002010044" type="landuse.residential" color="235,235,227" fill="1" layer="-3.00" shape="25614.204479,48034.635367 25584.114821,47871.366572 25565.301827,47673.492119 25555.516843,47517.752960 25705.241559,47699.076487 25766.188980,47798.394194 25778.222617,47915.759223 25749.635772,48003.034808 25614.204479,48034.635367"/>
    <poly id="1002010046" type="landuse.residential" color="235,235,227" fill="1" layer="-3.00" shape="25304.892142,48227.385335 25306.684386,48045.842849 25369.980648,48045.842849 25369.980648,48159.303509 25500.758786,48140.195726 25521.664586,48179.010387 25304.892142,48227.385335"/>
    <poly id="1002010047" type="leisure.park" color="207,245,201" fill="1" layer="-2.00" shape="25199.194285,47994.485695 25277.418492,47931.197464 25382.526355,47984.938153 25361.620554,48031.515245 25205.161010,48028.532410 25199.194285,47994.485695"/>
    <poly id="1002010048" type="landuse.quarry" color="194,194,130" fill="1" layer="-3.00" shape="25660.635839,48682.100483 25583.146341,48528.609236 25846.472597,48399.207602 25994.694499,48477.450019 26131.628604,48785.930808 26107.550198,48931.137283 26068.421397,48949.197708 25838.947399,48800.221735 25787.039120,48778.404675 25720.826287,48655.016608 25660.635839,48682.100483"/>
    <poly id="1002010049" type="landuse.residential" color="235,235,227" fill="1" layer="-3.00" shape="25492.109262,49072.588349 25621.518170,48846.115054 25828.416575,48986.816387 25492.109262,49072.588349"/>
    <poly id="1002010050" type="landuse.construction" color="194,194,130" fill="1" layer="-3.00" shape="25914.188243,46850.798460 26245.987117,46857.574798 26263.297298,47155.512248 25929.873159,47155.000580 25911.928457,47141.971769 25914.188243,46850.798460"/>
    <poly id="1002010054" type="building.yes" color="255,230,230" fill="1" layer="-1.00" shape="26785.897779,46987.037169 26806.803580,46987.636188 26807.994698,47001.376192 26835.457217,47025.861137 26854.570773,47023.465055 26861.739748,47049.148081 26849.194042,47050.945146 26845.609554,47039.588698 26831.282736,47043.769367 26813.371430,47039.002157 26799.033479,47027.059178 26791.864504,47010.935549 26792.465629,47001.975212 26785.296654,47001.376192 26785.897779,46987.037169"/>
    <poly id="1002010055" type="landuse.commercial" color="209,209,204" fill="1" layer="-3.00" shape="26394.320339,47118.846908 26394.587505,47059.131777 26468.637231,47059.456247 26468.370064,47119.183859 26394.320339,47118.846908"/>
    <poly id="1002010056" type="landuse.commercial" color="209,209,204" fill="1" layer="-3.00" shape="26997.293492,47049.148081 26979.382186,46990.032264 27105.974711,46942.847113 27126.279386,47001.975212 26997.293492,47049.148081"/>
    <poly id="1002010057" type="landuse.commercial" color="209,209,204" fill="1" layer="-3.00" shape="26928.097297,47069.103001 26913.681423,47006.293145 26952.364946,46997.420168 26966.769688,47060.229984 26928.097297,47069.103001"/>
    <poly id="1002010059" type="landuse.residential" color="235,235,227" fill="1" layer="-3.00" shape="26665.861972,46806.696186 26671.839829,46469.307121 26656.310760,46451.387140 26308.170185,46450.189148 26303.383447,46785.206673 26320.114766,46807.894209 26665.861972,46806.696186"/>
    <poly id="1002010060" type="landuse.quarry" color="194,194,130" fill="1" layer="-3.00" shape="26413.266916,46317.025447 26405.507947,46115.179575 26660.496373,46229.835163 26631.831604,46311.647012 26413.266916,46317.025447"/>
    <poly id="1002010063" type="landuse.greenfield" color="242,242,204" fill="1" layer="-3.00" shape="26131.628604,46671.432602 26134.634230,46807.619662 26275.330935,46811.375962 26279.093534,46675.201345 26131.628604,46671.432602"/>
    <poly id="1002010064" type="landuse.construction" color="194,194,130" fill="1" layer="-3.00" shape="26259.011497,46451.848866 26272.147197,46464.989352 26271.557204,46580.845785 26022.535503,46583.828315 26024.327747,46451.848866 26259.011497,46451.848866"/>
    <poly id="1002010066" type="landuse.industrial" color="209,209,204" fill="1" layer="-3.00" shape="25148.198827,45478.725718 25173.780046,45338.783092 25396.485819,45384.677632 25368.655946,45510.320625 25148.198827,45478.725718"/>
    <poly id="1002010067" type="landuse.industrial" color="209,209,204" fill="1" layer="-3.00" shape="25192.593040,45213.890305 25242.998505,44958.829948 25482.045980,45007.493327 25435.158210,45258.524157 25192.593040,45213.890305"/>
    <poly id="1002010068" type="landuse.military" color="153,153,92" fill="1" layer="-3.00" shape="25435.158210,45258.524157 25575.721331,45285.963378 25586.474794,45026.197578 25482.045980,45007.493327 25435.158210,45258.524157"/>
    <poly id="1002010070" type="landuse.industrial" color="209,209,204" fill="1" layer="-3.00" shape="24952.688405,44871.523277 25009.561533,44575.293529 25022.352142,44569.603823 25252.238023,44613.212487 25273.088163,44652.553981 25222.371003,44920.822719 25208.155504,44933.138248 24968.796335,44886.696157 24952.688405,44871.523277"/>
    <poly id="1002010073" type="building.warehouse" color="255,230,230" fill="1" layer="-1.00" shape="24859.781158,44510.049204 24845.910749,44335.192406 24157.243852,44389.855199 24171.091996,44564.575422 24859.781158,44510.049204"/>
    <poly id="1002010086" type="landuse.industrial" color="209,209,204" fill="1" layer="-3.00" shape="25012.711874,43738.868900 24933.719564,43622.249760 25031.524868,43558.294921 24979.616590,43468.763623 25162.436590,43508.638417 25263.258652,43623.759428 25390.407775,43650.846127 25075.162109,43732.094059 25012.711874,43738.868900"/>
    <poly id="1002010087" type="landuse.aquaculture" color="194,194,130" fill="1" layer="-3.00" shape="27278.553318,46436.487118 27737.512446,46073.837404 28101.660765,45854.150659 28369.506591,46141.559762 28206.991267,46158.106678 28047.492700,46322.129346 27946.670638,46326.646735 27821.781301,46475.609069 27815.758916,46558.370761 27696.880832,46686.282955 27757.071281,46681.765451 27693.875206,46832.241544 27513.303860,46738.945678 27550.918716,46687.780470 27538.885079,46624.585455 27403.453786,46526.773508 27370.347370,46541.823375 27278.553318,46436.487118"/>
    <poly id="1002010087#1" type="natural.water" color="181,209,209" fill="1" layer="-4.00" shape="27278.553318,46436.487118 27737.512446,46073.837404 28101.660765,45854.150659 28369.506591,46141.559762 28206.991267,46158.106678 28047.492700,46322.129346 27946.670638,46326.646735 27821.781301,46475.609069 27815.758916,46558.370761 27696.880832,46686.282955 27757.071281,46681.765451 27693.875206,46832.241544 27513.303860,46738.945678 27550.918716,46687.780470 27538.885079,46624.585455 27403.453786,46526.773508 27370.347370,46541.823375 27278.553318,46436.487118"/>
    <poly id="1002010088" type="landuse.aquaculture" color="194,194,130" fill="1" layer="-3.00" shape="27350.788535,46334.171560 27701.400404,46046.758535 27894.005387,45939.916057 27683.333250,45407.238135 27304.134537,45480.971799 26861.739748,45625.420521 26982.120646,45778.905147 26822.610947,45867.689902 26664.615194,45897.788248 26539.725857,45986.561272 26813.582937,46307.079712 26921.173225,46161.114076 27046.819534,46072.339954 27034.785897,46024.184532 27110.026741,46000.113121 27116.049125,46039.233863 27350.788535,46334.171560"/>
    <poly id="1002010088#1" type="natural.water" color="181,209,209" fill="1" layer="-4.00" shape="27350.788535,46334.171560 27701.400404,46046.758535 27894.005387,45939.916057 27683.333250,45407.238135 27304.134537,45480.971799 26861.739748,45625.420521 26982.120646,45778.905147 26822.610947,45867.689902 26664.615194,45897.788248 26539.725857,45986.561272 26813.582937,46307.079712 26921.173225,46161.114076 27046.819534,46072.339954 27034.785897,46024.184532 27110.026741,46000.113121 27116.049125,46039.233863 27350.788535,46334.171560"/>
    <poly id="1002010089" type="landuse.aquaculture" color="194,194,130" fill="1" layer="-3.00" shape="26849.706111,46332.661603 26980.617833,46183.688298 27093.473532,46076.857263 27325.207316,46355.236100 27212.351617,46409.407553 27125.077136,46514.731129 26849.706111,46332.661603"/>
    <poly id="1002010089#1" type="natural.water" color="181,209,209" fill="1" layer="-4.00" shape="26849.706111,46332.661603 26980.617833,46183.688298 27093.473532,46076.857263 27325.207316,46355.236100 27212.351617,46409.407553 27125.077136,46514.731129 26849.706111,46332.661603"/>
    <poly id="1002010090" type="landuse.aquaculture" color="194,194,130" fill="1" layer="-3.00" shape="26918.957967,46886.489705 26955.927170,46850.461515 26989.100378,46786.005354 27040.285080,46771.791343 27098.115555,46718.704201 27226.088442,46631.486477 27341.738261,46701.632496 27347.426687,46780.314756 27282.961570,46826.763078 27116.127049,46845.719328 27077.265415,46872.263114 27095.265776,46903.549153 27010.907866,46913.033567 26972.035100,46939.564999 26918.957967,46886.489705"/>
    <poly id="1002010090#1" type="natural.water" color="181,209,209" fill="1" layer="-4.00" shape="26918.957967,46886.489705 26955.927170,46850.461515 26989.100378,46786.005354 27040.285080,46771.791343 27098.115555,46718.704201 27226.088442,46631.486477 27341.738261,46701.632496 27347.426687,46780.314756 27282.961570,46826.763078 27116.127049,46845.719328 27077.265415,46872.263114 27095.265776,46903.549153 27010.907866,46913.033567 26972.035100,46939.564999 26918.957967,46886.489705"/>
    <poly id="1002010091" type="landuse.aquaculture" color="194,194,130" fill="1" layer="-3.00" shape="26923.689045,46740.505596 26917.054403,46632.434900 27011.854082,46572.721827 27025.123365,46508.254455 27128.450116,46554.701882 27190.065455,46603.994724 27152.150036,46637.177014 26972.992448,46738.608736 26923.689045,46740.505596"/>
    <poly id="1002010091#1" type="natural.water" color="181,209,209" fill="1" layer="-4.00" shape="26923.689045,46740.505596 26917.054403,46632.434900 27011.854082,46572.721827 27025.123365,46508.254455 27128.450116,46554.701882 27190.065455,46603.994724 27152.150036,46637.177014 26972.992448,46738.608736 26923.689045,46740.505596"/>
    <poly id="1002010092" type="leisure.pitch" color="207,245,201" fill="1" layer="-2.00" shape="28680.087971,47588.003226 28678.273463,47521.821450 28721.944099,47520.623367 28723.758607,47586.805137 28680.087971,47588.003226"/>
    <poly id="1002010092#1" type="sport.soccer" color="79,230,125" fill="1" layer="-2.00" shape="28680.087971,47588.003226 28678.273463,47521.821450 28721.944099,47520.623367 28723.758607,47586.805137 28680.087971,47588.003226"/>
    <poly id="1002010093" type="leisure.pitch" color="207,245,201" fill="1" layer="-2.00" shape="28631.686256,47564.465791 28636.684501,47532.329643 28652.603189,47534.813172 28647.616075,47566.949325 28631.686256,47564.465791"/>
    <poly id="1002010093#1" type="sport.basketball" color="79,230,125" fill="1" layer="-2.00" shape="28631.686256,47564.465791 28636.684501,47532.329643 28652.603189,47534.813172 28647.616075,47566.949325 28631.686256,47564.465791"/>
    <poly id="1002010094" type="landuse.landfill" color="194,194,130" fill="1" layer="-3.00" shape="28312.889498,47556.253906 28330.800805,47488.774359 28317.063979,47424.876879 28331.991923,47390.831622 28389.321461,47390.831622 28406.642774,47346.640301 28508.155017,47341.273954 28525.476330,47492.356121 28463.972311,47522.208331 28466.955674,47575.959942 28394.698192,47592.084217 28395.299318,47564.603072 28312.889498,47556.253906"/>
    <poly id="1002010095" type="landuse.landfill" color="194,194,130" fill="1" layer="-3.00" shape="28546.370998,47454.129908 28525.476330,47353.217199 28600.116049,47323.352866 28637.140911,47373.521986 28726.719705,47341.273954 28749.417750,47439.802905 28717.758486,47473.236762 28546.370998,47454.129908"/>
    <poly id="1002010102" type="building.yes" color="255,230,230" fill="1" layer="-1.00" shape="26847.067840,48523.604386 26851.420432,48500.115314 26927.652019,48514.256180 26923.288295,48537.757757 26847.067840,48523.604386"/>
    <poly id="1002010104" type="leisure.park" color="207,245,201" fill="1" layer="-2.00" shape="26447.453132,49208.523998 26471.531537,49143.819914 26508.400553,49118.994293 26631.787076,49167.896688 26819.883620,49239.378365 26928.230880,49280.005881 26902.649661,49331.168010 26813.861235,49288.281178 26757.433386,49401.889131 26657.368295,49425.966346 26503.135141,49333.427186 26454.221357,49279.256986 26447.453132,49208.523998"/>
    <poly id="1002010109" type="leisure.park" color="207,245,201" fill="1" layer="-2.00" shape="26433.159709,49465.845495 26420.369099,49477.877911 26102.440634,49473.072432 26058.781129,49472.410899 25674.762282,49466.594400 25319.641974,49515.498000 25312.116777,49471.112796 26369.206661,49312.358199 26403.058919,49359.002084 26433.159709,49465.845495"/>
    <poly id="1002010112" type="leisure.pitch" color="207,245,201" fill="1" layer="-2.00" shape="25672.368913,49256.390733 25656.049476,49135.632072 25732.726341,49125.259981 25749.068042,49246.018553 25672.368913,49256.390733"/>
    <poly id="1002010112#1" type="sport.soccer" color="79,230,125" fill="1" layer="-2.00" shape="25672.368913,49256.390733 25656.049476,49135.632072 25732.726341,49125.259981 25749.068042,49246.018553 25672.368913,49256.390733"/>
    <poly id="1002010113" type="leisure.pitch" color="207,245,201" fill="1" layer="-2.00" shape="25756.771351,49145.330171 25746.240527,49077.618357 25795.889020,49067.832934 25804.917031,49137.803847 25756.771351,49145.330171"/>
    <poly id="1002010113#1" type="sport.soccer" color="79,230,125" fill="1" layer="-2.00" shape="25756.771351,49145.330171 25746.240527,49077.618357 25795.889020,49067.832934 25804.917031,49137.803847 25756.771351,49145.330171"/>
    <poly id="1002010114" type="building.construction" color="255,230,230" fill="1" layer="-1.00" shape="25327.913013,49380.820041 25303.834607,49292.799516 25376.069824,49273.989756 25397.888445,49368.787708 25394.125846,49383.840608 25352.737259,49394.362670 25327.913013,49380.820041"/>
    <poly id="1002010115" type="landuse.construction" color="194,194,130" fill="1" layer="-3.00" shape="25302.331794,49444.027405 25259.451526,49211.544528 25321.144788,49219.058410 25371.550253,49204.767059 25367.787654,49175.423029 25609.306421,49106.200816 25595.012999,49218.309518 25685.293106,49402.638033 25374.188525,49442.142663 25302.331794,49444.027405"/>
    <poly id="1002010117" type="landuse.residential" color="235,235,227" fill="1" layer="-3.00" shape="26183.681598,49834.498923 26149.072368,49674.242402 26477.865616,49675.752717 26522.259829,49874.379227 26502.689863,49894.687644 26183.681598,49834.498923"/>
    <poly id="1002010120" type="leisure.pitch" color="207,245,201" fill="1" layer="-2.00" shape="25808.880005,49137.878736 25826.679991,49134.958073 25820.590815,49097.788330 25802.790828,49100.708985 25808.880005,49137.878736"/>
    <poly id="1002010120#1" type="sport.tennis" color="79,230,125" fill="1" layer="-2.00" shape="25808.880005,49137.878736 25826.679991,49134.958073 25820.590815,49097.788330 25802.790828,49100.708985 25808.880005,49137.878736"/>
    <poly id="1002010121" type="leisure.pitch" color="207,245,201" fill="1" layer="-2.00" shape="25803.369690,49096.764853 25821.169676,49093.856681 25815.091632,49056.687047 25797.280514,49059.595211 25803.369690,49096.764853"/>
    <poly id="1002010121#1" type="sport.tennis" color="79,230,125" fill="1" layer="-2.00" shape="25803.369690,49096.764853 25821.169676,49093.856681 25815.091632,49056.687047 25797.280514,49059.595211 25803.369690,49096.764853"/>
    <poly id="1002010122" type="building.yes" color="255,230,230" fill="1" layer="-1.00" shape="25877.152248,49120.878992 25917.728203,49058.559256 25963.257874,49088.202597 25922.670788,49150.522464 25877.152248,49120.878992"/>
    <poly id="1002010123" type="leisure.pitch" color="207,245,201" fill="1" layer="-2.00" shape="25779.925805,49276.798113 25777.053762,49256.964885 25819.277245,49250.848918 25822.149288,49270.669655 25779.925805,49276.798113"/>
    <poly id="1002010149" type="landuse.commercial" color="209,209,204" fill="1" layer="-3.00" shape="27242.919949,48317.807993 27191.757511,48259.872525 27278.275019,48187.646975 27327.556158,48245.582146 27242.919949,48317.807993"/>
    <poly id="1002010152" type="landuse.farmland" color="194,194,130" fill="1" layer="-3.00" shape="27140.038475,48419.077066 27098.238007,48161.100715 27160.933144,48152.152128 27194.373519,48053.019137 27286.935675,48016.002011 27304.256988,47987.933459 27270.816613,47924.033719 27314.999319,47865.513293 27496.539145,47801.015053 27500.724758,47754.438721 27558.054295,47806.993109 27496.539145,47937.175575 27481.611201,48119.902316 27327.556158,48245.582146 27278.275019,48187.646975 27191.757511,48259.872525 27242.919949,48317.807993 27140.038475,48419.077066"/>
    <poly id="1002010153" type="landuse.farmland" color="194,194,130" fill="1" layer="-3.00" shape="27500.724758,48101.992719 27516.843820,47943.740268 27580.741208,47793.851374 27700.175889,47798.032266 27713.311589,47958.666843 27500.724758,48101.992719"/>
    <poly id="1002010154" type="landuse.residential" color="235,235,227" fill="1" layer="-3.00" shape="28758.679531,47604.040154 28912.166845,47303.834381 29033.293583,47053.291314 29131.110020,46893.790198 29299.636597,46659.801916 29352.301848,46665.816926 29335.759772,46814.795320 29271.049752,46867.458523 29259.761955,46937.431002 29347.036436,46969.029174 29338.765398,46991.604689 29267.287153,46983.330740 29209.356490,47081.882151 29164.216436,47124.774756 29113.799839,47205.281419 29121.325036,47275.243094 29093.484032,47340.712360 29094.997977,47427.984387 29167.222063,47568.671576 29392.187621,47965.181624 29499.777909,48012.582362 29484.727514,48059.983260 29377.137226,48034.398238 29240.203121,47932.832396 29267.287153,47855.329340 29170.227689,47774.831448 29079.947582,47683.039451 28928.720053,47684.549552 28902.381862,47571.691754 28832.417562,47613.063274 28842.948386,47671.757375 28775.978580,47686.047173 28750.842639,47633.593077 28758.679531,47604.040154"/>
    <poly id="1002010156" type="natural.beach" color="140,196,107" fill="1" layer="-4.00" shape="29964.848478,47729.241140 29925.441378,47696.393246 29952.313903,47640.856517 29995.906616,47637.274717 29964.848478,47729.241140"/>
    <poly id="1002010157" type="landuse.farmland" color="194,194,130" fill="1" layer="-3.00" shape="28491.379170,47707.675341 28554.731092,47881.538056 28750.363965,47962.685539 28935.165452,47917.806006 29224.139718,47926.654601 29267.287153,47855.329340 29170.227689,47774.831448 29079.947582,47683.039451 28928.720053,47684.549552 28902.381862,47571.691754 28832.417562,47613.063274 28842.948386,47671.757375 28775.978580,47686.047173 28750.842639,47633.593077 28552.860925,47701.921970 28491.379170,47707.675341"/>
    <poly id="1002010158" type="landuse.farmland" color="194,194,130" fill="1" layer="-3.00" shape="28515.190409,47873.026458 28458.016719,47707.513098 28189.413919,47716.536284 28096.874027,47780.485006 27939.624114,47976.114482 27793.661998,48377.877914 27913.285922,48432.044652 28275.942559,48025.012914 28515.190409,47873.026458"/>
    <poly id="1002010159" type="man_made.wastewater_plant" color="255,230,230" fill="1" layer="-1.00" shape="27859.997282,49470.438781 27845.670464,49279.344357 28092.298796,49312.782574 28074.977483,49514.624274 27859.997282,49470.438781"/>
    <poly id="1002010161" type="leisure.park" color="207,245,201" fill="1" layer="-2.00" shape="26909.395622,49350.289888 27060.478435,49424.331241 27067.046285,49484.643029 27149.456104,49486.440404 27175.727504,49518.680859 27126.156935,49574.224983 27062.860672,49654.845483 27022.251322,49677.537635 27001.946647,49635.136543 26942.835997,49620.208193 26864.010666,49564.663889 26859.825053,49539.587891 26778.617485,49476.292727 26869.376266,49476.292727 26904.018891,49464.946808 26909.395622,49350.289888"/>
    <poly id="1002010167" type="man_made.bridge" color="255,230,230" fill="1" layer="-1.00" shape="26379.704089,49312.670239 26454.944933,49291.763544 26497.947653,49335.948477 26410.161102,49359.239235 26379.704089,49312.670239"/>
    <poly id="1002010168" type="landuse.residential" color="235,235,227" fill="1" layer="-3.00" shape="27095.210116,50132.349475 27177.219185,50100.744215 27217.850799,50039.044261 27269.013237,49821.604940 27321.678489,49765.935022 27518.803043,49744.116468 27569.965481,49856.966686 27515.040444,49990.138844 27591.027128,50060.863271 27466.137792,50159.423706 27396.919332,50143.633519 27333.712126,50292.598721 27196.778020,50222.634560 27095.210116,50132.349475"/>
    <poly id="1002010169" type="leisure.stadium" color="207,245,201" fill="1" layer="-2.00" shape="27168.948147,50321.945076 27052.329849,50267.022130 27065.866299,50227.140716 27098.215743,50215.856605 27173.456587,50246.700694 27183.241570,50271.528300 27168.948147,50321.945076"/>
    <poly id="1002010170" type="leisure.pitch" color="207,245,201" fill="1" layer="-2.00" shape="27341.170531,50516.773471 27385.954363,50421.830492 27430.738194,50443.924712 27387.746606,50538.281153 27341.170531,50516.773471"/>
    <poly id="1002010170#1" type="sport.soccer" color="79,230,125" fill="1" layer="-2.00" shape="27341.170531,50516.773471 27385.954363,50421.830492 27430.738194,50443.924712 27387.746606,50538.281153 27341.170531,50516.773471"/>
    <poly id="1002010171" type="amenity.school" color="237,199,199" fill="1" layer="-2.00" shape="27385.954363,50594.403500 27188.295475,50439.143869 27215.168000,50372.861335 27242.630518,50351.965550 27288.616600,50344.800574 27313.696881,50353.750553 27458.801837,50421.830492 27385.954363,50594.403500"/>
    <poly id="1002010174" type="landuse.residential" color="235,235,227" fill="1" layer="-3.00" shape="27656.249218,50814.363813 27579.516693,50600.682327 27688.609794,50551.025999 27853.373772,50617.234475 27656.249218,50814.363813"/>
    <poly id="1002010175" type="landuse.residential" color="235,235,227" fill="1" layer="-3.00" shape="27848.865333,51000.947673 27912.261783,50815.924181 27954.195835,50831.665190 28010.623685,50761.698353 28064.791749,50926.473616 27935.382841,50980.637663 27848.865333,51000.947673"/>
    <poly id="1002010176" type="landuse.residential" color="235,235,227" fill="1" layer="-3.00" shape="28000.092861,51208.605794 28003.098488,51019.759738 28067.808508,50964.085088 28259.667650,51113.058960 28201.725855,51246.979502 28000.092861,51208.605794"/>
    <poly id="1002010177" type="landuse.industrial" color="209,209,204" fill="1" layer="-3.00" shape="28531.220416,51021.806971 28460.120657,50894.779194 28506.574281,50836.009262 28470.551293,50750.688438 28659.193302,50629.355253 28777.681768,50850.227368 28531.220416,51021.806971"/>
    <poly id="1002010178" type="amenity.place_of_worship" color="237,199,199" fill="1" layer="-1.00" shape="29776.818726,50459.677787 29864.026415,50423.652951 29860.230421,50354.449575 29807.142155,50344.026657 29776.818726,50459.677787"/>
    <poly id="1002010178#1" type="building.yes" color="255,230,230" fill="1" layer="-1.00" shape="29776.818726,50459.677787 29864.026415,50423.652951 29860.230421,50354.449575 29807.142155,50344.026657 29776.818726,50459.677787"/>
    <poly id="1002010179" type="landuse.commercial" color="209,209,204" fill="1" layer="-3.00" shape="29325.206684,50097.124344 29328.935887,50078.276063 29349.017923,50082.245434 29345.277588,50101.106202 29325.206684,50097.124344"/>
    <poly id="1002010180" type="landuse.residential" color="235,235,227" fill="1" layer="-3.00" shape="30505.037439,49431.171224 30619.095389,49436.538366 30604.768571,49508.795276 30548.630152,49510.592654 30505.037439,49431.171224"/>
    <poly id="1002010185" type="landuse.aquaculture" color="194,194,130" fill="1" layer="-3.00" shape="29391.553100,40282.786922 29370.702960,40188.000060 29260.741567,40163.352337 28930.857388,40303.642862 28290.046739,40430.662681 28003.777536,40440.142749 27706.120350,40443.934778 27453.970571,40512.191471 27194.228804,40703.678702 27078.578985,40883.779606 26839.698489,41551.125976 26748.705937,41907.559256 26449.156320,42288.627963 26202.683835,42785.345106 26071.872302,43172.101679 25925.887921,43750.347459 25918.307064,44235.699430 25918.307064,45830.129453 26081.356722,45966.632840 26354.356641,45881.316509 26466.210466,45934.400502 26600.817994,45850.981105 26741.113948,45636.750874 26906.056038,45555.229938 27342.996171,45427.115864 27326.120136,45229.862145 27342.194671,44936.332551 26710.779387,45016.801777 26705.090961,44982.674983 27344.844075,44905.450158 27392.154858,44909.842317 27411.780484,44471.307020 26936.390599,44434.760947 26942.079025,44398.739014 27413.773103,44451.979638 27428.088790,44312.708480 26646.325402,44101.084329 26652.013828,44072.649252 27434.211362,44285.233719 27509.797296,43945.808794 26722.156239,43877.373313 26310.752797,43881.166265 26305.064371,43858.421048 26715.098583,43842.612957 27492.609567,43904.111147 27558.889191,43674.851149 26832.151028,43400.804556 26845.386915,43374.965973 27575.008254,43652.967151 27691.047691,43131.890978 26796.094645,42976.825714 26797.998208,42946.496550 27696.257443,43108.510686 27870.505842,42648.248681 27182.851952,42480.114314 27175.271094,42432.719672 27404.678301,42497.168440 28107.493906,42689.044366 28643.552914,41652.296626 28251.474535,41510.408425 28054.962238,41922.728953 27641.655233,41644.025804 27440.701288,41564.399125 27461.551429,41498.045981 28053.069807,41846.893108 28217.677938,41484.623198 28033.299465,41343.971664 27927.935567,41031.661652 27747.831763,41018.389004 27799.016465,40948.246258 27982.916264,40989.947656 28026.520108,41141.623030 28161.127637,41352.067665 28260.424622,41431.031992 28318.989807,41465.250004 28358.675205,41422.624079 28517.550382,41211.766735 27882.439291,40912.220740 27899.504569,40889.467828 28295.735165,41073.375771 28519.453946,40762.443885 28654.061474,40957.726673 28830.380415,40802.261147 28832.272847,40754.859658 28860.714977,40773.820234 29027.549497,40620.252769 28983.945653,40574.747923 29105.272766,40512.191471 29283.495271,40569.072301 29310.033837,40514.087495 29366.906965,40521.671594 29393.456664,40337.770828 29145.091748,40320.706835 29158.361031,40288.474903 29391.553100,40282.786922"/>