<?xml version='1.0' encoding='utf-8'?>
<routes xmlns:xsi="http://www.w3.org/2001/XMLSchema-instance" xsi:noNamespaceSchemaLocation="http://sumo.dlr.de/xsd/routes_file.xsd">
    <vType id="taxi" vClass="taxi" />
<trip id="dongchong_taxi0" type="taxi" depart="0.00" departLane="best" from="1163782197#2" to="-51691749#4"><stop edge="-51691749#4" parking="true" duration="10.00" /><stop edge="1163782197#2" parking="true" duration="10.00" /><stop edge="-51691749#4" parking="true" duration="10.00" /><stop edge="1163782197#2" parking="true" duration="10.00" /><stop edge="-51691749#4" parking="true" duration="10.00" /><stop edge="1163782197#2" parking="true" duration="10.00" /><stop edge="-51691749#4" parking="true" duration="10.00" /></trip><trip id="dongchong_taxi1" type="taxi" depart="0.00" departLane="best" from="1163782197#2" to="-51691749#4"><stop edge="-51691749#4" parking="true" duration="10.00" /><stop edge="1163782197#2" parking="true" duration="10.00" /><stop edge="-51691749#4" parking="true" duration="10.00" /><stop edge="1163782197#2" parking="true" duration="10.00" /><stop edge="-51691749#4" parking="true" duration="10.00" /><stop edge="1163782197#2" parking="true" duration="10.00" /><stop edge="-51691749#4" parking="true" duration="10.00" /></trip><trip id="dongchong_taxi2" type="taxi" depart="0.00" departLane="best" from="1163782197#2" to="-51691749#4"><stop edge="-51691749#4" parking="true" duration="10.00" /><stop edge="1163782197#2" parking="true" duration="10.00" /><stop edge="-51691749#4" parking="true" duration="10.00" /><stop edge="1163782197#2" parking="true" duration="10.00" /><stop edge="-51691749#4" parking="true" duration="10.00" /><stop edge="1163782197#2" parking="true" duration="10.00" /><stop edge="-51691749#4" parking="true" duration="10.00" /></trip><trip id="dongchong_taxi3" type="taxi" depart="0.00" departLane="best" from="1163782197#2" to="-51691749#4"><stop edge="-51691749#4" parking="true" duration="10.00" /><stop edge="1163782197#2" parking="true" duration="10.00" /><stop edge="-51691749#4" parking="true" duration="10.00" /><stop edge="1163782197#2" parking="true" duration="10.00" /><stop edge="-51691749#4" parking="true" duration="10.00" /><stop edge="1163782197#2" parking="true" duration="10.00" /><stop edge="-51691749#4" parking="true" duration="10.00" /></trip><trip id="dongchong_taxi4" type="taxi" depart="0.00" departLane="best" from="1163782197#2" to="-51691749#4"><stop edge="-51691749#4" parking="true" duration="10.00" /><stop edge="1163782197#2" parking="true" duration="10.00" /><stop edge="-51691749#4" parking="true" duration="10.00" /><stop edge="1163782197#2" parking="true" duration="10.00" /><stop edge="-51691749#4" parking="true" duration="10.00" /><stop edge="1163782197#2" parking="true" duration="10.00" /><stop edge="-51691749#4" parking="true" duration="10.00" /></trip><trip id="dongchong_taxi5" type="taxi" depart="0.00" departLane="best" from="1163782197#2" to="-51691749#4"><stop edge="-51691749#4" parking="true" duration="10.00" /><stop edge="1163782197#2" parking="true" duration="10.00" /><stop edge="-51691749#4" parking="true" duration="10.00" /><stop edge="1163782197#2" parking="true" duration="10.00" /><stop edge="-51691749#4" parking="true" duration="10.00" /><stop edge="1163782197#2" parking="true" duration="10.00" /><stop edge="-51691749#4" parking="true" duration="10.00" /></trip><trip id="dongchong_taxi6" type="taxi" depart="0.00" departLane="best" from="1163782197#2" to="-51691749#4"><stop edge="-51691749#4" parking="true" duration="10.00" /><stop edge="1163782197#2" parking="true" duration="10.00" /><stop edge="-51691749#4" parking="true" duration="10.00" /><stop edge="1163782197#2" parking="true" duration="10.00" /><stop edge="-51691749#4" parking="true" duration="10.00" /><stop edge="1163782197#2" parking="true" duration="10.00" /><stop edge="-51691749#4" parking="true" duration="10.00" /></trip><trip id="dongchong_taxi7" type="taxi" depart="0.00" departLane="best" from="1163782197#2" to="-51691749#4"><stop edge="-51691749#4" parking="true" duration="10.00" /><stop edge="1163782197#2" parking="true" duration="10.00" /><stop edge="-51691749#4" parking="true" duration="10.00" /><stop edge="1163782197#2" parking="true" duration="10.00" /><stop edge="-51691749#4" parking="true" duration="10.00" /><stop edge="1163782197#2" parking="true" duration="10.00" /><stop edge="-51691749#4" parking="true" duration="10.00" /></trip><trip id="dongchong_taxi8" type="taxi" depart="0.00" departLane="best" from="1163782197#2" to="-51691749#4"><stop edge="-51691749#4" parking="true" duration="10.00" /><stop edge="1163782197#2" parking="true" duration="10.00" /><stop edge="-51691749#4" parking="true" duration="10.00" /><stop edge="1163782197#2" parking="true" duration="10.00" /><stop edge="-51691749#4" parking="true" duration="10.00" /><stop edge="1163782197#2" parking="true" duration="10.00" /><stop edge="-51691749#4" parking="true" duration="10.00" /></trip><trip id="dongchong_taxi9" type="taxi" depart="0.00" departLane="best" from="1163782197#2" to="-51691749#4"><stop edge="-51691749#4" parking="true" duration="10.00" /><stop edge="1163782197#2" parking="true" duration="10.00" /><stop edge="-51691749#4" parking="true" duration="10.00" /><stop edge="1163782197#2" parking="true" duration="10.00" /><stop edge="-51691749#4" parking="true" duration="10.00" /><stop edge="1163782197#2" parking="true" duration="10.00" /><stop edge="-51691749#4" parking="true" duration="10.00" /></trip><trip id="dongchong_taxi10" type="taxi" depart="0.00" departLane="best" from="1163782197#2" to="-51691749#4"><stop edge="-51691749#4" parking="true" duration="10.00" /><stop edge="1163782197#2" parking="true" duration="10.00" /><stop edge="-51691749#4" parking="true" duration="10.00" /><stop edge="1163782197#2" parking="true" duration="10.00" /><stop edge="-51691749#4" parking="true" duration="10.00" /><stop edge="1163782197#2" parking="true" duration="10.00" /><stop edge="-51691749#4" parking="true" duration="10.00" /></trip><trip id="dongchong_taxi11" type="taxi" depart="0.00" departLane="best" from="1163782197#2" to="-51691749#4"><stop edge="-51691749#4" parking="true" duration="10.00" /><stop edge="1163782197#2" parking="true" duration="10.00" /><stop edge="-51691749#4" parking="true" duration="10.00" /><stop edge="1163782197#2" parking="true" duration="10.00" /><stop edge="-51691749#4" parking="true" duration="10.00" /><stop edge="1163782197#2" parking="true" duration="10.00" /><stop edge="-51691749#4" parking="true" duration="10.00" /></trip><trip id="dongchong_taxi12" type="taxi" depart="0.00" departLane="best" from="1163782197#2" to="-51691749#4"><stop edge="-51691749#4" parking="true" duration="10.00" /><stop edge="1163782197#2" parking="true" duration="10.00" /><stop edge="-51691749#4" parking="true" duration="10.00" /><stop edge="1163782197#2" parking="true" duration="10.00" /><stop edge="-51691749#4" parking="true" duration="10.00" /><stop edge="1163782197#2" parking="true" duration="10.00" /><stop edge="-51691749#4" parking="true" duration="10.00" /></trip><trip id="dongchong_taxi13" type="taxi" depart="0.00" departLane="best" from="1163782197#2" to="-51691749#4"><stop edge="-51691749#4" parking="true" duration="10.00" /><stop edge="1163782197#2" parking="true" duration="10.00" /><stop edge="-51691749#4" parking="true" duration="10.00" /><stop edge="1163782197#2" parking="true" duration="10.00" /><stop edge="-51691749#4" parking="true" duration="10.00" /><stop edge="1163782197#2" parking="true" duration="10.00" /><stop edge="-51691749#4" parking="true" duration="10.00" /></trip><trip id="dongchong_taxi14" type="taxi" depart="0.00" departLane="best" from="1163782197#2" to="-51691749#4"><stop edge="-51691749#4" parking="true" duration="10.00" /><stop edge="1163782197#2" parking="true" duration="10.00" /><stop edge="-51691749#4" parking="true" duration="10.00" /><stop edge="1163782197#2" parking="true" duration="10.00" /><stop edge="-51691749#4" parking="true" duration="10.00" /><stop edge="1163782197#2" parking="true" duration="10.00" /><stop edge="-51691749#4" parking="true" duration="10.00" /></trip><trip id="beibi_taxi0" type="taxi" depart="0.00" departLane="best" from="296185646#0" to="715792677"><stop edge="715792677" parking="true" duration="10.00" /><stop edge="296185646#0" parking="true" duration="10.00" /><stop edge="715792677" parking="true" duration="10.00" /></trip><trip id="beibi_taxi1" type="taxi" depart="0.00" departLane="best" from="296185646#0" to="715792677"><stop edge="715792677" parking="true" duration="10.00" /><stop edge="296185646#0" parking="true" duration="10.00" /><stop edge="715792677" parking="true" duration="10.00" /></trip><trip id="beibi_taxi2" type="taxi" depart="0.00" departLane="best" from="296185646#0" to="715792677"><stop edge="715792677" parking="true" duration="10.00" /><stop edge="296185646#0" parking="true" duration="10.00" /><stop edge="715792677" parking="true" duration="10.00" /></trip><trip id="beibi_taxi3" type="taxi" depart="0.00" departLane="best" from="296185646#0" to="715792677"><stop edge="715792677" parking="true" duration="10.00" /><stop edge="296185646#0" parking="true" duration="10.00" /><stop edge="715792677" parking="true" duration="10.00" /></trip><trip id="beibi_taxi4" type="taxi" depart="0.00" departLane="best" from="296185646#0" to="715792677"><stop edge="715792677" parking="true" duration="10.00" /><stop edge="296185646#0" parking="true" duration="10.00" /><stop edge="715792677" parking="true" duration="10.00" /></trip><trip id="beibi_taxi5" type="taxi" depart="0.00" departLane="best" from="296185646#0" to="715792677"><stop edge="715792677" parking="true" duration="10.00" /><stop edge="296185646#0" parking="true" duration="10.00" /><stop edge="715792677" parking="true" duration="10.00" /></trip><trip id="beibi_taxi6" type="taxi" depart="0.00" departLane="best" from="296185646#0" to="715792677"><stop edge="715792677" parking="true" duration="10.00" /><stop edge="296185646#0" parking="true" duration="10.00" /><stop edge="715792677" parking="true" duration="10.00" /></trip><trip id="beibi_taxi7" type="taxi" depart="0.00" departLane="best" from="296185646#0" to="715792677"><stop edge="715792677" parking="true" duration="10.00" /><stop edge="296185646#0" parking="true" duration="10.00" /><stop edge="715792677" parking="true" duration="10.00" /></trip><trip id="beibi_taxi8" type="taxi" depart="0.00" departLane="best" from="296185646#0" to="715792677"><stop edge="715792677" parking="true" duration="10.00" /><stop edge="296185646#0" parking="true" duration="10.00" /><stop edge="715792677" parking="true" duration="10.00" /></trip><trip id="beibi_taxi9" type="taxi" depart="0.00" departLane="best" from="296185646#0" to="715792677"><stop edge="715792677" parking="true" duration="10.00" /><stop edge="296185646#0" parking="true" duration="10.00" /><stop edge="715792677" parking="true" duration="10.00" /></trip><trip id="beibi_taxi10" type="taxi" depart="0.00" departLane="best" from="296185646#0" to="715792677"><stop edge="715792677" parking="true" duration="10.00" /><stop edge="296185646#0" parking="true" duration="10.00" /><stop edge="715792677" parking="true" duration="10.00" /></trip><trip id="beibi_taxi11" type="taxi" depart="0.00" departLane="best" from="296185646#0" to="715792677"><stop edge="715792677" parking="true" duration="10.00" /><stop edge="296185646#0" parking="true" duration="10.00" /><stop edge="715792677" parking="true" duration="10.00" /></trip><trip id="beibi_taxi12" type="taxi" depart="0.00" departLane="best" from="296185646#0" to="715792677"><stop edge="715792677" parking="true" duration="10.00" /><stop edge="296185646#0" parking="true" duration="10.00" /><stop edge="715792677" parking="true" duration="10.00" /></trip><trip id="beibi_taxi13" type="taxi" depart="0.00" departLane="best" from="296185646#0" to="715792677"><stop edge="715792677" parking="true" duration="10.00" /><stop edge="296185646#0" parking="true" duration="10.00" /><stop edge="715792677" parking="true" duration="10.00" /></trip><trip id="beibi_taxi14" type="taxi" depart="0.00" departLane="best" from="296185646#0" to="715792677"><stop edge="715792677" parking="true" duration="10.00" /><stop edge="296185646#0" parking="true" duration="10.00" /><stop edge="715792677" parking="true" duration="10.00" /></trip><trip id="beigang_taxi0" type="taxi" depart="0.00" departLane="best" from="1068471749#0" to="1172895341#1"><stop edge="1172895341#1" parking="true" duration="10.00" /><stop edge="1068471749#0" parking="true" duration="10.00" /><stop edge="1172895341#1" parking="true" duration="10.00" /><stop edge="1068471749#0" parking="true" duration="10.00" /><stop edge="1172895341#1" parking="true" duration="10.00" /><stop edge="1068471749#0" parking="true" duration="10.00" /><stop edge="1172895341#1" parking="true" duration="10.00" /><stop edge="1068471749#0" parking="true" duration="10.00" /><stop edge="1172895341#1" parking="true" duration="10.00" /></trip><trip id="beigang_taxi1" type="taxi" depart="0.00" departLane="best" from="1068471749#0" to="1172895341#1"><stop edge="1172895341#1" parking="true" duration="10.00" /><stop edge="1068471749#0" parking="true" duration="10.00" /><stop edge="1172895341#1" parking="true" duration="10.00" /><stop edge="1068471749#0" parking="true" duration="10.00" /><stop edge="1172895341#1" parking="true" duration="10.00" /><stop edge="1068471749#0" parking="true" duration="10.00" /><stop edge="1172895341#1" parking="true" duration="10.00" /><stop edge="1068471749#0" parking="true" duration="10.00" /><stop edge="1172895341#1" parking="true" duration="10.00" /></trip><trip id="beigang_taxi2" type="taxi" depart="0.00" departLane="best" from="1068471749#0" to="1172895341#1"><stop edge="1172895341#1" parking="true" duration="10.00" /><stop edge="1068471749#0" parking="true" duration="10.00" /><stop edge="1172895341#1" parking="true" duration="10.00" /><stop edge="1068471749#0" parking="true" duration="10.00" /><stop edge="1172895341#1" parking="true" duration="10.00" /><stop edge="1068471749#0" parking="true" duration="10.00" /><stop edge="1172895341#1" parking="true" duration="10.00" /><stop edge="1068471749#0" parking="true" duration="10.00" /><stop edge="1172895341#1" parking="true" duration="10.00" /></trip><trip id="beigang_taxi3" type="taxi" depart="0.00" departLane="best" from="1068471749#0" to="1172895341#1"><stop edge="1172895341#1" parking="true" duration="10.00" /><stop edge="1068471749#0" parking="true" duration="10.00" /><stop edge="1172895341#1" parking="true" duration="10.00" /><stop edge="1068471749#0" parking="true" duration="10.00" /><stop edge="1172895341#1" parking="true" duration="10.00" /><stop edge="1068471749#0" parking="true" duration="10.00" /><stop edge="1172895341#1" parking="true" duration="10.00" /><stop edge="1068471749#0" parking="true" duration="10.00" /><stop edge="1172895341#1" parking="true" duration="10.00" /></trip><trip id="beigang_taxi4" type="taxi" depart="0.00" departLane="best" from="1068471749#0" to="1172895341#1"><stop edge="1172895341#1" parking="true" duration="10.00" /><stop edge="1068471749#0" parking="true" duration="10.00" /><stop edge="1172895341#1" parking="true" duration="10.00" /><stop edge="1068471749#0" parking="true" duration="10.00" /><stop edge="1172895341#1" parking="true" duration="10.00" /><stop edge="1068471749#0" parking="true" duration="10.00" /><stop edge="1172895341#1" parking="true" duration="10.00" /><stop edge="1068471749#0" parking="true" duration="10.00" /><stop edge="1172895341#1" parking="true" duration="10.00" /></trip><trip id="beigang_taxi5" type="taxi" depart="0.00" departLane="best" from="1068471749#0" to="1172895341#1"><stop edge="1172895341#1" parking="true" duration="10.00" /><stop edge="1068471749#0" parking="true" duration="10.00" /><stop edge="1172895341#1" parking="true" duration="10.00" /><stop edge="1068471749#0" parking="true" duration="10.00" /><stop edge="1172895341#1" parking="true" duration="10.00" /><stop edge="1068471749#0" parking="true" duration="10.00" /><stop edge="1172895341#1" parking="true" duration="10.00" /><stop edge="1068471749#0" parking="true" duration="10.00" /><stop edge="1172895341#1" parking="true" duration="10.00" /></trip><trip id="beigang_taxi6" type="taxi" depart="0.00" departLane="best" from="1068471749#0" to="1172895341#1"><stop edge="1172895341#1" parking="true" duration="10.00" /><stop edge="1068471749#0" parking="true" duration="10.00" /><stop edge="1172895341#1" parking="true" duration="10.00" /><stop edge="1068471749#0" parking="true" duration="10.00" /><stop edge="1172895341#1" parking="true" duration="10.00" /><stop edge="1068471749#0" parking="true" duration="10.00" /><stop edge="1172895341#1" parking="true" duration="10.00" /><stop edge="1068471749#0" parking="true" duration="10.00" /><stop edge="1172895341#1" parking="true" duration="10.00" /></trip><trip id="beigang_taxi7" type="taxi" depart="0.00" departLane="best" from="1068471749#0" to="1172895341#1"><stop edge="1172895341#1" parking="true" duration="10.00" /><stop edge="1068471749#0" parking="true" duration="10.00" /><stop edge="1172895341#1" parking="true" duration="10.00" /><stop edge="1068471749#0" parking="true" duration="10.00" /><stop edge="1172895341#1" parking="true" duration="10.00" /><stop edge="1068471749#0" parking="true" duration="10.00" /><stop edge="1172895341#1" parking="true" duration="10.00" /><stop edge="1068471749#0" parking="true" duration="10.00" /><stop edge="1172895341#1" parking="true" duration="10.00" /></trip><trip id="beigang_taxi8" type="taxi" depart="0.00" departLane="best" from="1068471749#0" to="1172895341#1"><stop edge="1172895341#1" parking="true" duration="10.00" /><stop edge="1068471749#0" parking="true" duration="10.00" /><stop edge="1172895341#1" parking="true" duration="10.00" /><stop edge="1068471749#0" parking="true" duration="10.00" /><stop edge="1172895341#1" parking="true" duration="10.00" /><stop edge="1068471749#0" parking="true" duration="10.00" /><stop edge="1172895341#1" parking="true" duration="10.00" /><stop edge="1068471749#0" parking="true" duration="10.00" /><stop edge="1172895341#1" parking="true" duration="10.00" /></trip><trip id="beigang_taxi9" type="taxi" depart="0.00" departLane="best" from="1068471749#0" to="1172895341#1"><stop edge="1172895341#1" parking="true" duration="10.00" /><stop edge="1068471749#0" parking="true" duration="10.00" /><stop edge="1172895341#1" parking="true" duration="10.00" /><stop edge="1068471749#0" parking="true" duration="10.00" /><stop edge="1172895341#1" parking="true" duration="10.00" /><stop edge="1068471749#0" parking="true" duration="10.00" /><stop edge="1172895341#1" parking="true" duration="10.00" /><stop edge="1068471749#0" parking="true" duration="10.00" /><stop edge="1172895341#1" parking="true" duration="10.00" /></trip><trip id="beigang_taxi10" type="taxi" depart="0.00" departLane="best" from="1068471749#0" to="1172895341#1"><stop edge="1172895341#1" parking="true" duration="10.00" /><stop edge="1068471749#0" parking="true" duration="10.00" /><stop edge="1172895341#1" parking="true" duration="10.00" /><stop edge="1068471749#0" parking="true" duration="10.00" /><stop edge="1172895341#1" parking="true" duration="10.00" /><stop edge="1068471749#0" parking="true" duration="10.00" /><stop edge="1172895341#1" parking="true" duration="10.00" /><stop edge="1068471749#0" parking="true" duration="10.00" /><stop edge="1172895341#1" parking="true" duration="10.00" /></trip><trip id="beigang_taxi11" type="taxi" depart="0.00" departLane="best" from="1068471749#0" to="1172895341#1"><stop edge="1172895341#1" parking="true" duration="10.00" /><stop edge="1068471749#0" parking="true" duration="10.00" /><stop edge="1172895341#1" parking="true" duration="10.00" /><stop edge="1068471749#0" parking="true" duration="10.00" /><stop edge="1172895341#1" parking="true" duration="10.00" /><stop edge="1068471749#0" parking="true" duration="10.00" /><stop edge="1172895341#1" parking="true" duration="10.00" /><stop edge="1068471749#0" parking="true" duration="10.00" /><stop edge="1172895341#1" parking="true" duration="10.00" /></trip><trip id="beigang_taxi12" type="taxi" depart="0.00" departLane="best" from="1068471749#0" to="1172895341#1"><stop edge="1172895341#1" parking="true" duration="10.00" /><stop edge="1068471749#0" parking="true" duration="10.00" /><stop edge="1172895341#1" parking="true" duration="10.00" /><stop edge="1068471749#0" parking="true" duration="10.00" /><stop edge="1172895341#1" parking="true" duration="10.00" /><stop edge="1068471749#0" parking="true" duration="10.00" /><stop edge="1172895341#1" parking="true" duration="10.00" /><stop edge="1068471749#0" parking="true" duration="10.00" /><stop edge="1172895341#1" parking="true" duration="10.00" /></trip><trip id="beigang_taxi13" type="taxi" depart="0.00" departLane="best" from="1068471749#0" to="1172895341#1"><stop edge="1172895341#1" parking="true" duration="10.00" /><stop edge="1068471749#0" parking="true" duration="10.00" /><stop edge="1172895341#1" parking="true" duration="10.00" /><stop edge="1068471749#0" parking="true" duration="10.00" /><stop edge="1172895341#1" parking="true" duration="10.00" /><stop edge="1068471749#0" parking="true" duration="10.00" /><stop edge="1172895341#1" parking="true" duration="10.00" /><stop edge="1068471749#0" parking="true" duration="10.00" /><stop edge="1172895341#1" parking="true" duration="10.00" /></trip><trip id="beigang_taxi14" type="taxi" depart="0.00" departLane="best" from="1068471749#0" to="1172895341#1"><stop edge="1172895341#1" parking="true" duration="10.00" /><stop edge="1068471749#0" parking="true" duration="10.00" /><stop edge="1172895341#1" parking="true" duration="10.00" /><stop edge="1068471749#0" parking="true" duration="10.00" /><stop edge="1172895341#1" parking="true" duration="10.00" /><stop edge="1068471749#0" parking="true" duration="10.00" /><stop edge="1172895341#1" parking="true" duration="10.00" /><stop edge="1068471749#0" parking="true" duration="10.00" /><stop edge="1172895341#1" parking="true" duration="10.00" /></trip><trip id="houshan_taxi0" type="taxi" depart="0.00" departLane="best" from="1068471755#2" to="-777284203"><stop edge="-777284203" parking="true" duration="10.00" /><stop edge="1068471755#2" parking="true" duration="10.00" /><stop edge="-777284203" parking="true" duration="10.00" /><stop edge="1068471755#2" parking="true" duration="10.00" /><stop edge="-777284203" parking="true" duration="10.00" /><stop edge="1068471755#2" parking="true" duration="10.00" /><stop edge="-777284203" parking="true" duration="10.00" /><stop edge="1068471755#2" parking="true" duration="10.00" /><stop edge="-777284203" parking="true" duration="10.00" /></trip><trip id="houshan_taxi1" type="taxi" depart="0.00" departLane="best" from="1068471755#2" to="-777284203"><stop edge="-777284203" parking="true" duration="10.00" /><stop edge="1068471755#2" parking="true" duration="10.00" /><stop edge="-777284203" parking="true" duration="10.00" /><stop edge="1068471755#2" parking="true" duration="10.00" /><stop edge="-777284203" parking="true" duration="10.00" /><stop edge="1068471755#2" parking="true" duration="10.00" /><stop edge="-777284203" parking="true" duration="10.00" /><stop edge="1068471755#2" parking="true" duration="10.00" /><stop edge="-777284203" parking="true" duration="10.00" /></trip><trip id="houshan_taxi2" type="taxi" depart="0.00" departLane="best" from="1068471755#2" to="-777284203"><stop edge="-777284203" parking="true" duration="10.00" /><stop edge="1068471755#2" parking="true" duration="10.00" /><stop edge="-777284203" parking="true" duration="10.00" /><stop edge="1068471755#2" parking="true" duration="10.00" /><stop edge="-777284203" parking="true" duration="10.00" /><stop edge="1068471755#2" parking="true" duration="10.00" /><stop edge="-777284203" parking="true" duration="10.00" /><stop edge="1068471755#2" parking="true" duration="10.00" /><stop edge="-777284203" parking="true" duration="10.00" /></trip><trip id="houshan_taxi3" type="taxi" depart="0.00" departLane="best" from="1068471755#2" to="-777284203"><stop edge="-777284203" parking="true" duration="10.00" /><stop edge="1068471755#2" parking="true" duration="10.00" /><stop edge="-777284203" parking="true" duration="10.00" /><stop edge="1068471755#2" parking="true" duration="10.00" /><stop edge="-777284203" parking="true" duration="10.00" /><stop edge="1068471755#2" parking="true" duration="10.00" /><stop edge="-777284203" parking="true" duration="10.00" /><stop edge="1068471755#2" parking="true" duration="10.00" /><stop edge="-777284203" parking="true" duration="10.00" /></trip><trip id="houshan_taxi4" type="taxi" depart="0.00" departLane="best" from="1068471755#2" to="-777284203"><stop edge="-777284203" parking="true" duration="10.00" /><stop edge="1068471755#2" parking="true" duration="10.00" /><stop edge="-777284203" parking="true" duration="10.00" /><stop edge="1068471755#2" parking="true" duration="10.00" /><stop edge="-777284203" parking="true" duration="10.00" /><stop edge="1068471755#2" parking="true" duration="10.00" /><stop edge="-777284203" parking="true" duration="10.00" /><stop edge="1068471755#2" parking="true" duration="10.00" /><stop edge="-777284203" parking="true" duration="10.00" /></trip><trip id="houshan_taxi5" type="taxi" depart="0.00" departLane="best" from="1068471755#2" to="-777284203"><stop edge="-777284203" parking="true" duration="10.00" /><stop edge="1068471755#2" parking="true" duration="10.00" /><stop edge="-777284203" parking="true" duration="10.00" /><stop edge="1068471755#2" parking="true" duration="10.00" /><stop edge="-777284203" parking="true" duration="10.00" /><stop edge="1068471755#2" parking="true" duration="10.00" /><stop edge="-777284203" parking="true" duration="10.00" /><stop edge="1068471755#2" parking="true" duration="10.00" /><stop edge="-777284203" parking="true" duration="10.00" /></trip><trip id="houshan_taxi6" type="taxi" depart="0.00" departLane="best" from="1068471755#2" to="-777284203"><stop edge="-777284203" parking="true" duration="10.00" /><stop edge="1068471755#2" parking="true" duration="10.00" /><stop edge="-777284203" parking="true" duration="10.00" /><stop edge="1068471755#2" parking="true" duration="10.00" /><stop edge="-777284203" parking="true" duration="10.00" /><stop edge="1068471755#2" parking="true" duration="10.00" /><stop edge="-777284203" parking="true" duration="10.00" /><stop edge="1068471755#2" parking="true" duration="10.00" /><stop edge="-777284203" parking="true" duration="10.00" /></trip><trip id="houshan_taxi7" type="taxi" depart="0.00" departLane="best" from="1068471755#2" to="-777284203"><stop edge="-777284203" parking="true" duration="10.00" /><stop edge="1068471755#2" parking="true" duration="10.00" /><stop edge="-777284203" parking="true" duration="10.00" /><stop edge="1068471755#2" parking="true" duration="10.00" /><stop edge="-777284203" parking="true" duration="10.00" /><stop edge="1068471755#2" parking="true" duration="10.00" /><stop edge="-777284203" parking="true" duration="10.00" /><stop edge="1068471755#2" parking="true" duration="10.00" /><stop edge="-777284203" parking="true" duration="10.00" /></trip><trip id="houshan_taxi8" type="taxi" depart="0.00" departLane="best" from="1068471755#2" to="-777284203"><stop edge="-777284203" parking="true" duration="10.00" /><stop edge="1068471755#2" parking="true" duration="10.00" /><stop edge="-777284203" parking="true" duration="10.00" /><stop edge="1068471755#2" parking="true" duration="10.00" /><stop edge="-777284203" parking="true" duration="10.00" /><stop edge="1068471755#2" parking="true" duration="10.00" /><stop edge="-777284203" parking="true" duration="10.00" /><stop edge="1068471755#2" parking="true" duration="10.00" /><stop edge="-777284203" parking="true" duration="10.00" /></trip><trip id="houshan_taxi9" type="taxi" depart="0.00" departLane="best" from="1068471755#2" to="-777284203"><stop edge="-777284203" parking="true" duration="10.00" /><stop edge="1068471755#2" parking="true" duration="10.00" /><stop edge="-777284203" parking="true" duration="10.00" /><stop edge="1068471755#2" parking="true" duration="10.00" /><stop edge="-777284203" parking="true" duration="10.00" /><stop edge="1068471755#2" parking="true" duration="10.00" /><stop edge="-777284203" parking="true" duration="10.00" /><stop edge="1068471755#2" parking="true" duration="10.00" /><stop edge="-777284203" parking="true" duration="10.00" /></trip><trip id="houshan_taxi10" type="taxi" depart="0.00" departLane="best" from="1068471755#2" to="-777284203"><stop edge="-777284203" parking="true" duration="10.00" /><stop edge="1068471755#2" parking="true" duration="10.00" /><stop edge="-777284203" parking="true" duration="10.00" /><stop edge="1068471755#2" parking="true" duration="10.00" /><stop edge="-777284203" parking="true" duration="10.00" /><stop edge="1068471755#2" parking="true" duration="10.00" /><stop edge="-777284203" parking="true" duration="10.00" /><stop edge="1068471755#2" parking="true" duration="10.00" /><stop edge="-777284203" parking="true" duration="10.00" /></trip><trip id="houshan_taxi11" type="taxi" depart="0.00" departLane="best" from="1068471755#2" to="-777284203"><stop edge="-777284203" parking="true" duration="10.00" /><stop edge="1068471755#2" parking="true" duration="10.00" /><stop edge="-777284203" parking="true" duration="10.00" /><stop edge="1068471755#2" parking="true" duration="10.00" /><stop edge="-777284203" parking="true" duration="10.00" /><stop edge="1068471755#2" parking="true" duration="10.00" /><stop edge="-777284203" parking="true" duration="10.00" /><stop edge="1068471755#2" parking="true" duration="10.00" /><stop edge="-777284203" parking="true" duration="10.00" /></trip><trip id="houshan_taxi12" type="taxi" depart="0.00" departLane="best" from="10