<?xml version='1.0' encoding='utf-8'?>
<routes xmlns:xsi="http://www.w3.org/2001/XMLSchema-instance" xsi:noNamespaceSchemaLocation="http://sumo.dlr.de/xsd/routes_file.xsd">
    <vType id="tricycle" vClass="private" speedFactor="0.95" />
<trip id="dongchong_tricycle0" type="tricycle" depart="0.00" departLane="best" from="1163782197#2" to="-51691749#4"><stop edge="-51691749#4" parking="true" duration="10.00" /><stop edge="1163782197#2" parking="true" duration="10.00" /><stop edge="-51691749#4" parking="true" duration="10.00" /><stop edge="1163782197#2" parking="true" duration="10.00" /><stop edge="-51691749#4" parking="true" duration="10.00" /><stop edge="1163782197#2" parking="true" duration="10.00" /><stop edge="-51691749#4" parking="true" duration="10.00" /></trip><trip id="dongchong_tricycle1" type="tricycle" depart="0.00" departLane="best" from="1163782197#2" to="-51691749#4"><stop edge="-51691749#4" parking="true" duration="10.00" /><stop edge="1163782197#2" parking="true" duration="10.00" /><stop edge="-51691749#4" parking="true" duration="10.00" /><stop edge="1163782197#2" parking="true" duration="10.00" /><stop edge="-51691749#4" parking="true" duration="10.00" /><stop edge="1163782197#2" parking="true" duration="10.00" /><stop edge="-51691749#4" parking="true" duration="10.00" /></trip><trip id="dongchong_tricycle2" type="tricycle" depart="0.00" departLane="best" from="1163782197#2" to="-51691749#4"><stop edge="-51691749#4" parking="true" duration="10.00" /><stop edge="1163782197#2" parking="true" duration="10.00" /><stop edge="-51691749#4" parking="true" duration="10.00" /><stop edge="1163782197#2" parking="true" duration="10.00" /><stop edge="-51691749#4" parking="true" duration="10.00" /><stop edge="1163782197#2" parking="true" duration="10.00" /><stop edge="-51691749#4" parking="true" duration="10.00" /></trip><trip id="dongchong_tricycle3" type="tricycle" depart="0.00" departLane="best" from="1163782197#2" to="-51691749#4"><stop edge="-51691749#4" parking="true" duration="10.00" /><stop edge="1163782197#2" parking="true" duration="10.00" /><stop edge="-51691749#4" parking="true" duration="10.00" /><stop edge="1163782197#2" parking="true" duration="10.00" /><stop edge="-51691749#4" parking="true" duration="10.00" /><stop edge="1163782197#2" parking="true" duration="10.00" /><stop edge="-51691749#4" parking="true" duration="10.00" /></trip><trip id="dongchong_tricycle4" type="tricycle" depart="0.00" departLane="best" from="1163782197#2" to="-51691749#4"><stop edge="-51691749#4" parking="true" duration="10.00" /><stop edge="1163782197#2" parking="true" duration="10.00" /><stop edge="-51691749#4" parking="true" duration="10.00" /><stop edge="1163782197#2" parking="true" duration="10.00" /><stop edge="-51691749#4" parking="true" duration="10.00" /><stop edge="1163782197#2" parking="true" duration="10.00" /><stop edge="-51691749#4" parking="true" duration="10.00" /></trip><trip id="dongchong_tricycle5" type="tricycle" depart="0.00" departLane="best" from="1163782197#2" to="-51691749#4"><stop edge="-51691749#4" parking="true" duration="10.00" /><stop edge="1163782197#2" parking="true" duration="10.00" /><stop edge="-51691749#4" parking="true" duration="10.00" /><stop edge="1163782197#2" parking="true" duration="10.00" /><stop edge="-51691749#4" parking="true" duration="10.00" /><stop edge="1163782197#2" parking="true" duration="10.00" /><stop edge="-51691749#4" parking="true" duration="10.00" /></trip><trip id="dongchong_tricycle6" type="tricycle" depart="0.00" departLane="best" from="1163782197#2" to="-51691749#4"><stop edge="-51691749#4" parking="true" duration="10.00" /><stop edge="1163782197#2" parking="true" duration="10.00" /><stop edge="-51691749#4" parking="true" duration="10.00" /><stop edge="1163782197#2" parking="true" duration="10.00" /><stop edge="-51691749#4" parking="true" duration="10.00" /><stop edge="1163782197#2" parking="true" duration="10.00" /><stop edge="-51691749#4" parking="true" duration="10.00" /></trip><trip id="dongchong_tricycle7" type="tricycle" depart="0.00" departLane="best" from="1163782197#2" to="-51691749#4"><stop edge="-51691749#4" parking="true" duration="10.00" /><stop edge="1163782197#2" parking="true" duration="10.00" /><stop edge="-51691749#4" parking="true" duration="10.00" /><stop edge="1163782197#2" parking="true" duration="10.00" /><stop edge="-51691749#4" parking="true" duration="10.00" /><stop edge="1163782197#2" parking="true" duration="10.00" /><stop edge="-51691749#4" parking="true" duration="10.00" /></trip><trip id="dongchong_tricycle8" type="tricycle" depart="0.00" departLane="best" from="1163782197#2" to="-51691749#4"><stop edge="-51691749#4" parking="true" duration="10.00" /><stop edge="1163782197#2" parking="true" duration="10.00" /><stop edge="-51691749#4" parking="true" duration="10.00" /><stop edge="1163782197#2" parking="true" duration="10.00" /><stop edge="-51691749#4" parking="true" duration="10.00" /><stop edge="1163782197#2" parking="true" duration="10.00" /><stop edge="-51691749#4" parking="true" duration="10.00" /></trip><trip id="dongchong_tricycle9" type="tricycle" depart="0.00" departLane="best" from="1163782197#2" to="-51691749#4"><stop edge="-51691749#4" parking="true" duration="10.00" /><stop edge="1163782197#2" parking="true" duration="10.00" /><stop edge="-51691749#4" parking="true" duration="10.00" /><stop edge="1163782197#2" parking="true" duration="10.00" /><stop edge="-51691749#4" parking="true" duration="10.00" /><stop edge="1163782197#2" parking="true" duration="10.00" /><stop edge="-51691749#4" parking="true" duration="10.00" /></trip><trip id="dongchong_tricycle10" type="tricycle" depart="0.00" departLane="best" from="1163782197#2" to="-51691749#4"><stop edge="-51691749#4" parking="true" duration="10.00" /><stop edge="1163782197#2" parking="true" duration="10.00" /><stop edge="-51691749#4" parking="true" duration="10.00" /><stop edge="1163782197#2" parking="true" duration="10.00" /><stop edge="-51691749#4" parking="true" duration="10.00" /><stop edge="1163782197#2" parking="true" duration="10.00" /><stop edge="-51691749#4" parking="true" duration="10.00" /></trip><trip id="dongchong_tricycle11" type="tricycle" depart="0.00" departLane="best" from="1163782197#2" to="-51691749#4"><stop edge="-51691749#4" parking="true" duration="10.00" /><stop edge="1163782197#2" parking="true" duration="10.00" /><stop edge="-51691749#4" parking="true" duration="10.00" /><stop edge="1163782197#2" parking="true" duration="10.00" /><stop edge="-51691749#4" parking="true" duration="10.00" /><stop edge="1163782197#2" parking="true" duration="10.00" /><stop edge="-51691749#4" parking="true" duration="10.00" /></trip><trip id="dongchong_tricycle12" type="tricycle" depart="0.00" departLane="best" from="1163782197#2" to="-51691749#4"><stop edge="-51691749#4" parking="true" duration="10.00" /><stop edge="1163782197#2" parking="true" duration="10.00" /><stop edge="-51691749#4" parking="true" duration="10.00" /><stop edge="1163782197#2" parking="true" duration="10.00" /><stop edge="-51691749#4" parking="true" duration="10.00" /><stop edge="1163782197#2" parking="true" duration="10.00" /><stop edge="-51691749#4" parking="true" duration="10.00" /></trip><trip id="dongchong_tricycle13" type="tricycle" depart="0.00" departLane="best" from="1163782197#2" to="-51691749#4"><stop edge="-51691749#4" parking="true" duration="10.00" /><stop edge="1163782197#2" parking="true" duration="10.00" /><stop edge="-51691749#4" parking="true" duration="10.00" /><stop edge="1163782197#2" parking="true" duration="10.00" /><stop edge="-51691749#4" parking="true" duration="10.00" /><stop edge="1163782197#2" parking="true" duration="10.00" /><stop edge="-51691749#4" parking="true" duration="10.00" /></trip><trip id="dongchong_tricycle14" type="tricycle" depart="0.00" departLane="best" from="1163782197#2" to="-51691749#4"><stop edge="-51691749#4" parking="true" duration="10.00" /><stop edge="1163782197#2" parking="true" duration="10.00" /><stop edge="-51691749#4" parking="true" duration="10.00" /><stop edge="1163782197#2" parking="true" duration="10.00" /><stop edge="-51691749#4" parking="true" duration="10.00" /><stop edge="1163782197#2" parking="true" duration="10.00" /><stop edge="-51691749#4" parking="true" duration="10.00" /></trip><trip id="dongchong_tricycle15" type="tricycle" depart="0.00" departLane="best" from="1163782197#2" to="-51691749#4"><stop edge="-51691749#4" parking="true" duration="10.00" /><stop edge="1163782197#2" parking="true" duration="10.00" /><stop edge="-51691749#4" parking="true" duration="10.00" /><stop edge="1163782197#2" parking="true" duration="10.00" /><stop edge="-51691749#4" parking="true" duration="10.00" /><stop edge="1163782197#2" parking="true" duration="10.00" /><stop edge="-51691749#4" parking="true" duration="10.00" /></trip><trip id="dongchong_tricycle16" type="tricycle" depart="0.00" departLane="best" from="1163782197#2" to="-51691749#4"><stop edge="-51691749#4" parking="true" duration="10.00" /><stop edge="1163782197#2" parking="true" duration="10.00" /><stop edge="-51691749#4" parking="true" duration="10.00" /><stop edge="1163782197#2" parking="true" duration="10.00" /><stop edge="-51691749#4" parking="true" duration="10.00" /><stop edge="1163782197#2" parking="true" duration="10.00" /><stop edge="-51691749#4" parking="true" duration="10.00" /></trip><trip id="dongchong_tricycle17" type="tricycle" depart="0.00" departLane="best" from="1163782197#2" to="-51691749#4"><stop edge="-51691749#4" parking="true" duration="10.00" /><stop edge="1163782197#2" parking="true" duration="10.00" /><stop edge="-51691749#4" parking="true" duration="10.00" /><stop edge="1163782197#2" parking="true" duration="10.00" /><stop edge="-51691749#4" parking="true" duration="10.00" /><stop edge="1163782197#2" parking="true" duration="10.00" /><stop edge="-51691749#4" parking="true" duration="10.00" /></trip><trip id="dongchong_tricycle18" type="tricycle" depart="0.00" departLane="best" from="1163782197#2" to="-51691749#4"><stop edge="-51691749#4" parking="true" duration="10.00" /><stop edge="1163782197#2" parking="true" duration="10.00" /><stop edge="-51691749#4" parking="true" duration="10.00" /><stop edge="1163782197#2" parking="true" duration="10.00" /><stop edge="-51691749#4" parking="true" duration="10.00" /><stop edge="1163782197#2" parking="true" duration="10.00" /><stop edge="-51691749#4" parking="true" duration="10.00" /></trip><trip id="dongchong_tricycle19" type="tricycle" depart="0.00" departLane="best" from="1163782197#2" to="-51691749#4"><stop edge="-51691749#4" parking="true" duration="10.00" /><stop edge="1163782197#2" parking="true" duration="10.00" /><stop edge="-51691749#4" parking="true" duration="10.00" /><stop edge="1163782197#2" parking="true" duration="10.00" /><stop edge="-51691749#4" parking="true" duration="10.00" /><stop edge="1163782197#2" parking="true" duration="10.00" /><stop edge="-51691749#4" parking="true" duration="10.00" /></trip><trip id="dongchong_tricycle20" type="tricycle" depart="0.00" departLane="best" from="1163782197#2" to="-51691749#4"><stop edge="-51691749#4" parking="true" duration="10.00" /><stop edge="1163782197#2" parking="true" duration="10.00" /><stop edge="-51691749#4" parking="true" duration="10.00" /><stop edge="1163782197#2" parking="true" duration="10.00" /><stop edge="-51691749#4" parking="true" duration="10.00" /><stop edge="1163782197#2" parking="true" duration="10.00" /><stop edge="-51691749#4" parking="true" duration="10.00" /></trip><trip id="dongchong_tricycle21" type="tricycle" depart="0.00" departLane="best" from="1163782197#2" to="-51691749#4"><stop edge="-51691749#4" parking="true" duration="10.00" /><stop edge="1163782197#2" parking="true" duration="10.00" /><stop edge="-51691749#4" parking="true" duration="10.00" /><stop edge="1163782197#2" parking="true" duration="10.00" /><stop edge="-51691749#4" parking="true" duration="10.00" /><stop edge="1163782197#2" parking="true" duration="10.00" /><stop edge="-51691749#4" parking="true" duration="10.00" /></trip><trip id="dongchong_tricycle22" type="tricycle" depart="0.00" departLane="best" from="1163782197#2" to="-51691749#4"><stop edge="-51691749#4" parking="true" duration="10.00" /><stop edge="1163782197#2" parking="true" duration="10.00" /><stop edge="-51691749#4" parking="true" duration="10.00" /><stop edge="1163782197#2" parking="true" duration="10.00" /><stop edge="-51691749#4" parking="true" duration="10.00" /><stop edge="1163782197#2" parking="true" duration="10.00" /><stop edge="-51691749#4" parking="true" duration="10.00" /></trip><trip id="dongchong_tricycle23" type="tricycle" depart="0.00" departLane="best" from="1163782197#2" to="-51691749#4"><stop edge="-51691749#4" parking="true" duration="10.00" /><stop edge="1163782197#2" parking="true" duration="10.00" /><stop edge="-51691749#4" parking="true" duration="10.00" /><stop edge="1163782197#2" parking="true" duration="10.00" /><stop edge="-51691749#4" parking="true" duration="10.00" /><stop edge="1163782197#2" parking="true" duration="10.00" /><stop edge="-51691749#4" parking="true" duration="10.00" /></trip><trip id="dongchong_tricycle24" type="tricycle" depart="0.00" departLane="best" from="1163782197#2" to="-51691749#4"><stop edge="-51691749#4" parking="true" duration="10.00" /><stop edge="1163782197#2" parking="true" duration="10.00" /><stop edge="-51691749#4" parking="true" duration="10.00" /><stop edge="1163782197#2" parking="true" duration="10.00" /><stop edge="-51691749#4" parking="true" duration="10.00" /><stop edge="1163782197#2" parking="true" duration="10.00" /><stop edge="-51691749#4" parking="true" duration="10.00" /></trip><trip id="dongchong_tricycle25" type="tricycle" depart="0.00" departLane="best" from="1163782197#2" to="-51691749#4"><stop edge="-51691749#4" parking="true" duration="10.00" /><stop edge="1163782197#2" parking="true" duration="10.00" /><stop edge="-51691749#4" parking="true" duration="10.00" /><stop edge="1163782197#2" parking="true" duration="10.00" /><stop edge="-51691749#4" parking="true" duration="10.00" /><stop edge="1163782197#2" parking="true" duration="10.00" /><stop edge="-51691749#4" parking="true" duration="10.00" /></trip><trip id="dongchong_tricycle26" type="tricycle" depart="0.00" departLane="best" from="1163782197#2" to="-51691749#4"><stop edge="-51691749#4" parking="true" duration="10.00" /><stop edge="1163782197#2" parking="true" duration="10.00" /><stop edge="-51691749#4" parking="true" duration="10.00" /><stop edge="1163782197#2" parking="true" duration="10.00" /><stop edge="-51691749#4" parking="true" duration="10.00" /><stop edge="1163782197#2" parking="true" duration="10.00" /><stop edge="-51691749#4" parking="true" duration="10.00" /></trip><trip id="dongchong_tricycle27" type="tricycle" depart="0.00" departLane="best" from="1163782197#2" to="-51691749#4"><stop edge="-51691749#4" parking="true" duration="10.00" /><stop edge="1163782197#2" parking="true" duration="10.00" /><stop edge="-51691749#4" parking="true" duration="10.00" /><stop edge="1163782197#2" parking="true" duration="10.00" /><stop edge="-51691749#4" parking="true" duration="10.00" /><stop edge="1163782197#2" parking="true" duration="10.00" /><stop edge="-51691749#4" parking="true" duration="10.00" /></trip><trip id="dongchong_tricycle28" type="tricycle" depart="0.00" departLane="best" from="1163782197#2" to="-51691749#4"><stop edge="-51691749#4" parking="true" duration="10.00" /><stop edge="1163782197#2" parking="true" duration="10.00" /><stop edge="-51691749#4" parking="true" duration="10.00" /><stop edge="1163782197#2" parking="true" duration="10.00" /><stop edge="-51691749#4" parking="true" duration="10.00" /><stop edge="1163782197#2" parking="true" duration="10.00" /><stop edge="-51691749#4" parking="true" duration="10.00" /></trip><trip id="dongchong_tricycle29" type="tricycle" depart="0.00" departLane="best" from="1163782197#2" to="-51691749#4"><stop edge="-51691749#4" parking="true" duration="10.00" /><stop edge="1163782197#2" parking="true" duration="10.00" /><stop edge="-51691749#4" parking="true" duration="10.00" /><stop edge="1163782197#2" parking="true" duration="10.00" /><stop edge="-51691749#4" parking="true" duration="10.00" /><stop edge="1163782197#2" parking="true" duration="10.00" /><stop edge="-51691749#4" parking="true" duration="10.00" /></trip><trip id="dongchong_tricycle30" type="tricycle" depart="0.00" departLane="best" from="1163782197#2" to="-51691749#4"><stop edge="-51691749#4" parking="true" duration="10.00" /><stop edge="1163782197#2" parking="true" duration="10.00" /><stop edge="-51691749#4" parking="true" duration="10.00" /><stop edge="1163782197#2" parking="true" duration="10.00" /><stop edge="-51691749#4" parking="true" duration="10.00" /><stop edge="1163782197#2" parking="true" duration="10.00" /><stop edge="-51691749#4" parking="true" duration="10.00" /></trip><trip id="dongchong_tricycle31" type="tricycle" depart="0.00" departLane="best" from="1163782197#2" to="-51691749#4"><stop edge="-51691749#4" parking="true" duration="10.00" /><stop edge="1163782197#2" parking="true" duration="10.00" /><stop edge="-51691749#4" parking="true" duration="10.00" /><stop edge="1163782197#2" parking="true" duration="10.00" /><stop edge="-51691749#4" parking="true" duration="10.00" /><stop edge="1163782197#2" parking="true" duration="10.00" /><stop edge="-51691749#4" parking="true" duration="10.00" /></trip><trip id="dongchong_tricycle32" type="tricycle" depart="0.00" departLane="best" from="1163782197#2" to="-51691749#4"><stop edge="-51691749#4" parking="true" duration="10.00" /><stop edge="1163782197#2" parking="true" duration="10.00" /><stop edge="-51691749#4" parking="true" duration="10.00" /><stop edge="1163782197#2" parking="true" duration="10.00" /><stop edge="-51691749#4" parking="true" duration="10.00" /><stop edge="1163782197#2" parking="true" duration="10.00" /><stop edge="-51691749#4" parking="true" duration="10.00" /></trip><trip id="dongchong_tricycle33" type="tricycle" depart="0.00" departLane="best" from="1163782197#2" to="-51691749#4"><stop edge="-51691749#4" parking="true" duration="10.00" /><stop edge="1163782197#2" parking="true" duration="10.00" /><stop edge="-51691749#4" parking="true" duration="10.00" /><stop edge="1163782197#2" parking="true" duration="10.00" /><stop edge="-51691749#4" parking="true" duration="10.00" /><stop edge="1163782197#2" parking="true" duration="10.00" /><stop edge="-51691749#4" parking="true" duration="10.00" /></trip><trip id="dongchong_tricycle34" type="tricycle" depart="0.00" departLane="best" from="1163782197#2" to="-51691749#4"><stop edge="-51691749#4" parking="true" duration="10.00" /><stop edge="1163782197#2" parking="true" duration="10.00" /><stop edge="-51691749#4" parking="true" duration="10.00" /><stop edge="1163782197#2" parking="true" duration="10.00" /><stop edge="-51691749#4" parking="true" duration="10.00" /><stop edge="1163782197#2" parking="true" duration="10.00" /><stop edge="-51691749#4" parking="true" duration="10.00" /></trip><trip id="dongchong_tricycle35" type="tricycle" depart="0.00" departLane="best" from="1163782197#2" to="-51691749#4"><stop edge="-51691749#4" parking="true" duration="10.00" /><stop edge="1163782197#2" parking="true" duration="10.00" /><stop edge="-51691749#4" parking="true" duration="10.00" /><stop edge="1163782197#2" parking="true" duration="10.00" /><stop edge="-51691749#4" parking="true" duration="10.00" /><stop edge="1163782197#2" parking="true" duration="10.00" /><stop edge="-51691749#4" parking="true" duration="10.00" /></trip><trip id="dongchong_tricycle36" type="tricycle" depart="0.00" departLane="best" from="1163782197#2" to="-51691749#4"><stop edge="-51691749#4" parking="true" duration="10.00" /><stop edge="1163782197#2" parking="true" duration="10.00" /><stop edge="-51691749#4" parking="true" duration="10.00" /><stop edge="1163782197#2" parking="true" duration="10.00" /><stop edge="-51691749#4" parking="true" duration="10.00" /><stop edge="1163782197#2" parking="true" duration="10.00" /><stop edge="-51691749#4" parking="true" duration="10.00" /></trip><trip id="dongchong_tricycle37" type="tricycle" depart="0.00" departLane="best" from="1163782197#2" to="-51691749#4"><stop edge="-51691749#4" parking="true" duration="10.00" /><stop edge="1163782197#2" parking="true" duration="10.00" /><stop edge="-51691749#4" parking="true" duration="10.00" /><stop edge="1163782197#2" parking="true" duration="10.00" /><stop edge="-51691749#4" parking="true" duration="10.00" /><stop edge="1163782197#2" parking="true" duration="10.00" /><stop edge="-51691749#4" parking="true" duration="10.00" /></trip><trip id="dongchong_tricycle38" type="tricycle" depart="0.00" departLane="best" from="1163782197#2" to="-51691749#4"><stop edge="-51691749#4" parking="true" duration="10.00" /><stop edge="1163782197#2" parking="true" duration="10.00" /><stop edge="-51691749#4" parking="true" duration="10.00" /><stop edge="1163782197#2" parking="true" duration="10.00" /><stop edge="-51691749#4" parking="true" duration="10.00" /><stop edge="1163782197#2" parking="true" duration="10.00" /><stop edge="-51691749#4" parking="true" duration="10.00" /></trip><trip id="dongchong_tricycle39" type="tricycle" depart="0.00" departLane="best" from="1163782197#2" to="-51691749#4"><stop edge="-51691749#4" parking="true" duration="10.00" /><stop edge="1163782197#2" parking="true" duration="10.00" /><stop edge="-51691749#4" parking="true" duration="10.00" /><stop edge="1163782197#2" parking="true" duration="10.00" /><stop edge="-51691749#4" parking="true" duration="10.00" /><stop edge="1163782197#2" parking="true" duration="10.00" /><stop edge="-51691749#4" parking="true" duration="10.00" /></trip><trip id="dongchong_tricycle40" type="tricycle" depart="0.00" departLane="best" from="1163782197#2" to="-51691749#4"><stop edge="-51691749#4" parking="true" duration="10.00" /><stop edge="1163782197#2" parking="true" duration="10.00" /><stop edge="-51691749#4" parking="true" duration="10.00" /><stop edge="1163782197#2" parking="true" duration="10.00" /><stop edge="-51691749#4" parking="true" duration="10.00" /><stop edge="1163782197#2" parking="true" duration="10.00" /><stop edge="-51691749#4" parking="true" duration="10.00" /></trip><trip id="dongchong_tricycle41" type="tricycle" depart="0.00" departLane="best" from="1163782197#2" to="-51691749#4"><stop edge="-51691749#4" parking="true" duration="10.00" /><stop edge="1163782197#2" parking="true" duration="10.00" /><stop edge="-51691749#4" parking="true" duration="10.00" /><stop edge="1163782197#2" parking="true" duration="10.00" /><stop edge="-51691749#4" parking="true" duration="10.00" /><stop edge="1163782197#2" parking="true" duration="10.00" /><stop edge="-51691749#4" parking="true" duration="10.00" /></trip><trip id="dongchong_tricycle42" type="tricycle" depart="0.00" departLane="best" from="1163782197#2" to="-51691749#4"><stop edge="-51691749#4" parking="true" duration="10.00" /><stop edge="1163782197#2" parking="true" duration="10.00" /><stop edge="-51691749#4" parking="true" duration="10.00" /><stop edge="1163782197#2" parking="true" duration="10.00" /><stop edge="-51691749#4" parking="true" duration="10.00" /><stop edge="1163782197#2" parking="true" duration="10.00" /><stop edge="-51691749#4" parking="true" duration="10.00" /></trip><trip id="dongchong_tricycle43" type="tricycle" depart="0.00" departLane="best" from="1163782197#2" to="-51691749#4"><stop edge="-51691749#4" parking="true" duration="10.00" /><stop edge="1163782197#2" parking="true" duration="10.00" /><stop edge="-51691749#4" parking="true" duration="10.00" /><stop edge="1163782197#2" parking="true" duration="10.00" /><stop edge="-51691749#4" parking="true" duration="10.00" /><stop edge="1163782197#2" parking="true" duration="10.00" /><stop edge="-51691749#4" parking="true" duration="10.00" /></trip><trip id="dongchong_tricycle44" type="tricycle" depart="0.00" departLane="best" from="1163782197#2" to="-51691749#4"><stop edge="-51691749#4" parking="true" duration="10.00" /><stop edge="1163782197#2" parking="true" duration="10.00" /><stop edge="-51691749#4" parking="true" duration="10.00" /><stop edge="1163782197#2" parking="true" duration="10.00" /><stop edge="-51691749#4" parking="true" duration="10.00" /><stop edge="1163782197#2" parking="true" duration="10.00" /><stop edge="-51691749#4" parking="true" duration="10.00" /></trip><trip id="dongchong_tricycle45" type="tricycle" depart="0.00" departLane="best" from="1163782197#2" to="-51691749#4"><stop edge="-51691749#4" parking="true" duration="10.00" /><stop edge="1163782197#2" parking="true" duration="10.00" /><stop edge="-51691749#4" parking="true" duration="10.00" /><stop edge="1163782197#2" parking="true" duration="10.00" /><stop edge="-51691749#4" parking="true" duration="10.00" /><stop edge="1163782197#2" parking="true" duration="10.00" /><stop edge="-51691749#4" parking="true" duration="10.00" /></trip><trip id="dongchong_tricycle46" type="tricycle" depart="0.00" departLane="best" from="1163782197#2" to="-51691749#4"><stop edge="-51691749#4" parking="true" duration="10.00" /><stop edge="1163782197#2" parking="true" duration="10.00" /><stop edge="-51691749#4" parking="true" duration="10.00" /><stop edge="1163782197#2" parking="true" duration="10.00" /><stop edge="-51691749#4" parking="true" duration="10.00" /><stop edge="1163782197#2" parking="true" duration="10.00" /><stop edge="-51691749#4" parking="true" duration="10.00" /></trip><trip id="dongchong_tricycle47" type="tricycle" depart="0.00" departLane="best" from="1163782197#2" to="-51691749#4"><stop edge="-51691749#4" parking="true" duration="10.00" /><stop edge="1163782197#2" parking="true" duration="10.00" /><stop edge="-51691749#4" parking="true" duration="10.00" /><stop edge="1163782197#2" parking="true" duration="10.00" /><stop edge="-51691749#4" parking="true" duration="10.00" /><stop edge="1163782197#2" parking="true" duration="10.00" /><stop edge="-51691749#4" parking="true" duration="10.00" /></trip><trip id="dongchong_tricycle48" type="tricycle" depart="0.00" departLane="best" from="1163782197#2" to="-51691749#4"><stop edge="-51691749#4" parking="true" duration="10.00" /><stop edge="1163782197#2" parking="true" duration="10.00" /><stop edge="-51691749#4" parking="true" duration="10.00" /><stop edge="1163782197#2" parking="true" duration="10.00" /><stop edge="-51691749#4" parking="true" duration="10.00" /><stop edge="1163782197#2" parking="true" duration="10.00" /><stop edge="-51691749#4" parking="true" duration="10.00" /></trip><trip id="dongchong_tricycle49" type="tricycle" depart="0.00" departLane="best" from="1163782197#2" to="-51691749#4"><stop edge="-51691749#4" parking="true" duration="10.00" /><stop edge="1163782197#2" parking="true" duration="10.00" /><stop edge="-51691749#4" parking="true" duration="10.00" /><stop edge="1163782197#2" parking="true" duration="10.00" /><stop edge="-51691749#4" parking="true" duration="10.00" /><stop edge="1163782197#2" parking="true" duration="10.00" /><stop edge="-51691749#4" parking="true" duration="10.00" /></trip><trip id="dongchong_tricycle50" type="tricycle" depart="0.00" departLane="best" from="1163782197#2" to="-51691749#4"><stop edge="-51691749#4" parking="true" duration="10.00" /><stop edge="1163782197#2" parking="true" duration="10.00" /><stop edge="-51691749#4" parking="true" duration="10.00" /><stop edge="1163782197#2" parking="true" duration="10.00" /><stop edge="-51691749#4" parking="true" duration="10.00" /><stop edge="1163782197#2" parking="true" duration="10.00" /><stop edge="-51691749#4" parking="true" duration="10.00" /></trip><trip id="dongchong_tricycle51" type="tricycle" depart="0.00" departLane="best" from="1163782197#2" to="-51691749#4"><stop edge="-51691749#4" parking="true" duration="10.00" /><stop edge="1163782197#2" parking="true" duration="10.00" /><stop edge="-51691749#4" parking="true" duration="10.00" /><stop edge="1163782197#2" parking="true" duration="10.00" /><stop edge="-51691749#4" parking="true" duration="10.00" /><stop edge="1163782197#2" parking="true" duration="10.00" /><stop edge="-51691749#4" parking="true" duration="10.00" /></trip><trip id="dongchong_tricycle52" type="tricycle" depart="0.00" departLane="best" from="1163782197#2" to="-51691749#4"><stop edge="-51691749#4" parking="true" duration="10.00" /><stop edge="1163782197#2" parking="true" duration="10.00" /><stop edge="-51691749#4" parking="true" duration="10.00" /><stop edge="1163782197#2" parking="true" duration="10.00" /><stop edge="-51691749#4" parking="true" duration="10.00" /><stop edge="1163782197#2" parking="true" duration="10.00" /><stop edge="-51691749#4" parking="true" duration="10.00" /></trip><trip id="dongchong_tricycle53" type="tricycle" depart="0.00" departLane="best" from="1163782197#2" to="-51691749#4"><stop edge="-51691749#4" parking="true" duration="10.00" /><stop edge="1163782197#2" parking="true" duration="10.00" /><stop edge="-51691749#4" parking="true" duration="10.00" /><stop edge="1163782197#2" parking="true" duration="10.00" /><stop edge="-51691749#4" parking="true" duration="10.00" /><stop edge="1163782197#2" parking="true" duration="10.00" /><stop edge="-51691749#4" parking="true" duration="10.00" /></trip><trip id="dongchong_tricycle54" type="tricycle" depart="0.00" departLane="best" from="1163782197#2" to="-51691749#4"><stop edge="-51691749#4" parking="true" duration="10.00" /><stop edge="1163782197#2" parking="true" duration="10.00" /><stop edge="-51691749#4" parking="true" duration="10.00" /><stop edge="1163782197#2" parking="true" duration="10.00" /><stop edge="-51691749#4" parking="true" duration="10.00" /><stop edge="1163782197#2" parking="true" duration="10.00" /><stop edge="-51691749#4" parking="true" duration="10.00" /></trip><trip id="dongchong_tricycle55" type="tricycle" depart="0.00" departLane=