<?xml version="1.0" encoding="UTF-8"?>

<!-- generated on 2023-06-03 12:39:26.398000 by $Id: ptlines2flows.py v1_3_1+0313-ccb31df3eb jakob.erdmann@dlr.de 2019-09-02 13:26:32 +0200 $ v1_17_0+0000-737931d58da
  options: 
-->

<routes xmlns:xsi="http://www.w3.org/2001/XMLSchema-instance" xsi:noNamespaceSchemaLocation="http://sumo.dlr.de/xsd/routes_file.xsd">
    <vType id="bus" vClass="bus" speedFactor="0.95"/>
    <vType id="taxi" vClass="taxi" speedFactor="0.95"/>
    <vType id="private" vClass="private" speedFactor="0.95"/>
    <vType id="tricycle" vClass="private" speedFactor="0.95"/>
    <vType id="motorcycle" vClass="motorcycle" speedFactor="0.95"/>
</routes>
