<?xml version="1.0" ?>
<routes xmlns:xsi="http://www.w3.org/2001/XMLSchema-instance" xsi:noNamespaceSchemaLocation="http://sumo.dlr.de/xsd/routes_file.xsd">
  <vType id="motorcycle" vClass="motorcycle" maxSpeed="40"/>
  <trip id="beibi_motorcycle_0" type="motorcycle" depart="20" departLane="best" from="296185646#0" to="-51691749#4">
    <stop edge="-51691749#4" parking="true" duration="0"/>
  </trip>
  <trip id="beibi_motorcycle_1" type="motorcycle" depart="21" departLane="best" from="296185646#0" to="-51691749#4">
    <stop edge="-51691749#4" parking="true" duration="0"/>
  </trip>
  <trip id="beibi_motorcycle_2" type="motorcycle" depart="22" departLane="best" from="296185646#0" to="-51691749#4">
    <stop edge="-51691749#4" parking="true" duration="0"/>
  </trip>
  <trip id="beibi_motorcycle_3" type="motorcycle" depart="23" departLane="best" from="296185646#0" to="-51691749#4">
    <stop edge="-51691749#4" parking="true" duration="0"/>
  </trip>
  <trip id="beibi_motorcycle_4" type="motorcycle" depart="24" departLane="best" from="296185646#0" to="-51691749#4">
    <stop edge="-51691749#4" parking="true" duration="0"/>
  </trip>
  <trip id="beigang_motorcycle_0" type="motorcycle" depart="35" departLane="best" from="1068471749#0" to="715792677">
    <stop edge="715792677" parking="true" duration="0"/>
  </trip>
  <trip id="beigang_motorcycle_1" type="motorcycle" depart="36" departLane="best" from="1068471749#0" to="715792677">
    <stop edge="715792677" parking="true" duration="0"/>
  </trip>
  <trip id="beigang_motorcycle_2" type="motorcycle" depart="37" departLane="best" from="1068471749#0" to="715792677">
    <stop edge="715792677" parking="true" duration="0"/>
  </trip>
  <trip id="beigang_motorcycle_3" type="motorcycle" depart="38" departLane="best" from="1068471749#0" to="715792677">
    <stop edge="715792677" parking="true" duration="0"/>
  </trip>
  <trip id="beigang_motorcycle_4" type="motorcycle" depart="39" departLane="best" from="1068471749#0" to="715792677">
    <stop edge="715792677" parking="true" duration="0"/>
  </trip>
  <trip id="houshan_motorcycle_0" type="motorcycle" depart="50" departLane="best" from="1068471755#2" to="1172895350#7">
    <stop edge="1172895350#7" parking="true" duration="0"/>
  </trip>
  <trip id="houshan_motorcycle_1" type="motorcycle" depart="51" departLane="best" from="1068471755#2" to="1172895350#7">
    <stop edge="1172895350#7" parking="true" duration="0"/>
  </trip>
  <trip id="houshan_motorcycle_2" type="motorcycle" depart="52" departLane="best" from="1068471755#2" to="1172895350#7">
    <stop edge="1172895350#7" parking="true" duration="0"/>
  </trip>
  <trip id="houshan_motorcycle_3" type="motorcycle" depart="53" departLane="best" from="1068471755#2" to="1172895350#7">
    <stop edge="1172895350#7" parking="true" duration="0"/>
  </trip>
  <trip id="houshan_motorcycle_4" type="motorcycle" depart="54" departLane="best" from="1068471755#2" to="1172895350#7">
    <stop edge="1172895350#7" parking="true" duration="0"/>
  </trip>
  <trip id="panqian_motorcycle_0" type="motorcycle" depart="65" departLane="best" from="1068471755#2" to="543863877#1">
    <stop edge="543863877#1" parking="true" duration="0"/>
  </trip>
  <trip id="panqian_motorcycle_1" type="motorcycle" depart="66" departLane="best" from="1068471755#2" to="543863877#1">
    <stop edge="543863877#1" parking="true" duration="0"/>
  </trip>
  <trip id="panqian_motorcycle_2" type="motorcycle" depart="67" departLane="best" from="1068471755#2" to="543863877#1">
    <stop edge="543863877#1" parking="true" duration="0"/>
  </trip>
  <trip id="panqian_motorcycle_3" type="motorcycle" depart="68" departLane="best" from="1068471755#2" to="543863877#1">
    <stop edge="543863877#1" parking="true" duration="0"/>
  </trip>
  <trip id="panqian_motorcycle_4" type="motorcycle" depart="69" departLane="best" from="1068471755#2" to="543863877#1">
    <stop edge="543863877#1" parking="true" duration="0"/>
  </trip>
  <trip id="xiahu_motorcycle_0" type="motorcycle" depart="80" departLane="best" from="229540619#2" to="1172895350#7">
    <stop edge="1172895350#7" parking="true" duration="0"/>
  </trip>
  <trip id="xiahu_motorcycle_1" type="motorcycle" depart="81" departLane="best" from="229540619#2" to="1172895350#7">
    <stop edge="1172895350#7" parking="true" duration="0"/>
  </trip>
  <trip id="xiahu_motorcycle_2" type="motorcycle" depart="82" departLane="best" from="229540619#2" to="1172895350#7">
    <stop edge="1172895350#7" parking="true" duration="0"/>
  </trip>
  <trip id="xiahu_motorcycle_3" type="motorcycle" depart="83" departLane="best" from="229540619#2" to="1172895350#7">
    <stop edge="1172895350#7" parking="true" duration="0"/>
  </trip>
  <trip id="xiahu_motorcycle_4" type="motorcycle" depart="84" departLane="best" from="229540619#2" to="1172895350#7">
    <stop edge="1172895350#7" parking="true" duration="0"/>
  </trip>
  <trip id="jinxie_motorcycle_0" type="motorcycle" depart="95" departLane="best" from="1164353535" to="977360507#0">
    <stop edge="977360507#0" parking="true" duration="0"/>
  </trip>
  <trip id="jinxie_motorcycle_1" type="motorcycle" depart="96" departLane="best" from="1164353535" to="977360507#0">
    <stop edge="977360507#0" parking="true" duration="0"/>
  </trip>
  <trip id="jinxie_motorcycle_2" type="motorcycle" depart="97" departLane="best" from="1164353535" to="977360507#0">
    <stop edge="977360507#0" parking="true" duration="0"/>
  </trip>
  <trip id="jinxie_motorcycle_3" type="motorcycle" depart="98" departLane="best" from="1164353535" to="977360507#0">
    <stop edge="977360507#0" parking="true" duration="0"/>
  </trip>
  <trip id="jinxie_motorcycle_4" type="motorcycle" depart="99" departLane="best" from="1164353535" to="977360507#0">
    <stop edge="977360507#0" parking="true" duration="0"/>
  </trip>
  <trip id="liujin_motorcycle_0" type="motorcycle" depart="110" departLane="best" from="-474258045" to="-51691749#4">
    <stop edge="-51691749#4" parking="true" duration="0"/>
  </trip>
  <trip id="liujin_motorcycle_1" type="motorcycle" depart="111" departLane="best" from="-474258045" to="-51691749#4">
    <stop edge="-51691749#4" parking="true" duration="0"/>
  </trip>
  <trip id="liujin_motorcycle_2" type="motorcycle" depart="112" departLane="best" from="-474258045" to="-51691749#4">
    <stop edge="-51691749#4" parking="true" duration="0"/>
  </trip>
  <trip id="liujin_motorcycle_3" type="motorcycle" depart="113" departLane="best" from="-474258045" to="-51691749#4">
    <stop edge="-51691749#4" parking="true" duration="0"/>
  </trip>
  <trip id="liujin_motorcycle_4" type="motorcycle" depart="114" departLane="best" from="-474258045" to="-51691749#4">
    <stop edge="-51691749#4" parking="true" duration="0"/>
  </trip>
</routes>
