<?xml version="1.0" ?>
<routes xmlns:xsi="http://www.w3.org/2001/XMLSchema-instance" xsi:noNamespaceSchemaLocation="http://sumo.dlr.de/xsd/routes_file.xsd">
  <vType id="motorcycle" vClass="motorcycle" maxSpeed="40"/>
  <trip id="dongchong_motorcycle_0" type="motorcycle" depart="10" departLane="best" from="1163782197#2" to="977360507#0">
    <stop edge="977360507#0" parking="true" duration="0"/>
  </trip>
  <trip id="dongchong_motorcycle_1" type="motorcycle" depart="11" departLane="best" from="1163782197#2" to="977360507#0">
    <stop edge="977360507#0" parking="true" duration="0"/>
  </trip>
  <trip id="dongchong_motorcycle_2" type="motorcycle" depart="12" departLane="best" from="1163782197#2" to="977360507#0">
    <stop edge="977360507#0" parking="true" duration="0"/>
  </trip>
  <trip id="dongchong_motorcycle_3" type="motorcycle" depart="13" departLane="best" from="1163782197#2" to="977360507#0">
    <stop edge="977360507#0" parking="true" duration="0"/>
  </trip>
  <trip id="dongchong_motorcycle_4" type="motorcycle" depart="14" departLane="best" from="1163782197#2" to="977360507#0">
    <stop edge="977360507#0" parking="true" duration="0"/>
  </trip>
  <trip id="dongchong_motorcycle_5" type="motorcycle" depart="15" departLane="best" from="1163782197#2" to="977360507#0">
    <stop edge="977360507#0" parking="true" duration="0"/>
  </trip>
  <trip id="dongchong_motorcycle_6" type="motorcycle" depart="16" departLane="best" from="1163782197#2" to="977360507#0">
    <stop edge="977360507#0" parking="true" duration="0"/>
  </trip>
  <trip id="dongchong_motorcycle_7" type="motorcycle" depart="17" departLane="best" from="1163782197#2" to="977360507#0">
    <stop edge="977360507#0" parking="true" duration="0"/>
  </trip>
  <trip id="dongchong_motorcycle_8" type="motorcycle" depart="18" departLane="best" from="1163782197#2" to="977360507#0">
    <stop edge="977360507#0" parking="true" duration="0"/>
  </trip>
  <trip id="dongchong_motorcycle_9" type="motorcycle" depart="19" departLane="best" from="1163782197#2" to="977360507#0">
    <stop edge="977360507#0" parking="true" duration="0"/>
  </trip>
  <trip id="dongchong_motorcycle_10" type="motorcycle" depart="20" departLane="best" from="1163782197#2" to="977360507#0">
    <stop edge="977360507#0" parking="true" duration="0"/>
  </trip>
  <trip id="dongchong_motorcycle_11" type="motorcycle" depart="21" departLane="best" from="1163782197#2" to="977360507#0">
    <stop edge="977360507#0" parking="true" duration="0"/>
  </trip>
  <trip id="dongchong_motorcycle_12" type="motorcycle" depart="22" departLane="best" from="1163782197#2" to="977360507#0">
    <stop edge="977360507#0" parking="true" duration="0"/>
  </trip>
  <trip id="dongchong_motorcycle_13" type="motorcycle" depart="23" departLane="best" from="1163782197#2" to="977360507#0">
    <stop edge="977360507#0" parking="true" duration="0"/>
  </trip>
  <trip id="dongchong_motorcycle_14" type="motorcycle" depart="24" departLane="best" from="1163782197#2" to="977360507#0">
    <stop edge="977360507#0" parking="true" duration="0"/>
  </trip>
  <trip id="dongchong_motorcycle_15" type="motorcycle" depart="25" departLane="best" from="1163782197#2" to="977360507#0">
    <stop edge="977360507#0" parking="true" duration="0"/>
  </trip>
  <trip id="dongchong_motorcycle_16" type="motorcycle" depart="26" departLane="best" from="1163782197#2" to="977360507#0">
    <stop edge="977360507#0" parking="true" duration="0"/>
  </trip>
  <trip id="dongchong_motorcycle_17" type="motorcycle" depart="27" departLane="best" from="1163782197#2" to="977360507#0">
    <stop edge="977360507#0" parking="true" duration="0"/>
  </trip>
  <trip id="dongchong_motorcycle_18" type="motorcycle" depart="28" departLane="best" from="1163782197#2" to="977360507#0">
    <stop edge="977360507#0" parking="true" duration="0"/>
  </trip>
  <trip id="dongchong_motorcycle_19" type="motorcycle" depart="29" departLane="best" from="1163782197#2" to="977360507#0">
    <stop edge="977360507#0" parking="true" duration="0"/>
  </trip>
  <trip id="dongchong_motorcycle_20" type="motorcycle" depart="30" departLane="best" from="1163782197#2" to="977360507#0">
    <stop edge="977360507#0" parking="true" duration="0"/>
  </trip>
  <trip id="dongchong_motorcycle_21" type="motorcycle" depart="31" departLane="best" from="1163782197#2" to="977360507#0">
    <stop edge="977360507#0" parking="true" duration="0"/>
  </trip>
  <trip id="dongchong_motorcycle_22" type="motorcycle" depart="32" departLane="best" from="1163782197#2" to="977360507#0">
    <stop edge="977360507#0" parking="true" duration="0"/>
  </trip>
  <trip id="dongchong_motorcycle_23" type="motorcycle" depart="33" departLane="best" from="1163782197#2" to="977360507#0">
    <stop edge="977360507#0" parking="true" duration="0"/>
  </trip>
  <trip id="dongchong_motorcycle_24" type="motorcycle" depart="34" departLane="best" from="1163782197#2" to="977360507#0">
    <stop edge="977360507#0" parking="true" duration="0"/>
  </trip>
  <trip id="dongchong_motorcycle_25" type="motorcycle" depart="35" departLane="best" from="1163782197#2" to="977360507#0">
    <stop edge="977360507#0" parking="true" duration="0"/>
  </trip>
  <trip id="dongchong_motorcycle_26" type="motorcycle" depart="36" departLane="best" from="1163782197#2" to="977360507#0">
    <stop edge="977360507#0" parking="true" duration="0"/>
  </trip>
  <trip id="dongchong_motorcycle_27" type="motorcycle" depart="37" departLane="best" from="1163782197#2" to="977360507#0">
    <stop edge="977360507#0" parking="true" duration="0"/>
  </trip>
  <trip id="dongchong_motorcycle_28" type="motorcycle" depart="38" departLane="best" from="1163782197#2" to="977360507#0">
    <stop edge="977360507#0" parking="true" duration="0"/>
  </trip>
  <trip id="dongchong_motorcycle_29" type="motorcycle" depart="39" departLane="best" from="1163782197#2" to="977360507#0">
    <stop edge="977360507#0" parking="true" duration="0"/>
  </trip>
  <trip id="dongchong_motorcycle_30" type="motorcycle" depart="40" departLane="best" from="1163782197#2" to="977360507#0">
    <stop edge="977360507#0" parking="true" duration="0"/>
  </trip>
  <trip id="dongchong_motorcycle_31" type="motorcycle" depart="41" departLane="best" from="1163782197#2" to="977360507#0">
    <stop edge="977360507#0" parking="true" duration="0"/>
  </trip>
  <trip id="dongchong_motorcycle_32" type="motorcycle" depart="42" departLane="best" from="1163782197#2" to="977360507#0">
    <stop edge="977360507#0" parking="true" duration="0"/>
  </trip>
  <trip id="dongchong_motorcycle_33" type="motorcycle" depart="43" departLane="best" from="1163782197#2" to="977360507#0">
    <stop edge="977360507#0" parking="true" duration="0"/>
  </trip>
  <trip id="dongchong_motorcycle_34" type="motorcycle" depart="44" departLane="best" from="1163782197#2" to="977360507#0">
    <stop edge="977360507#0" parking="true" duration="0"/>
  </trip>
  <trip id="dongchong_motorcycle_35" type="motorcycle" depart="45" departLane="best" from="1163782197#2" to="977360507#0">
    <stop edge="977360507#0" parking="true" duration="0"/>
  </trip>
  <trip id="dongchong_motorcycle_36" type="motorcycle" depart="46" departLane="best" from="1163782197#2" to="977360507#0">
    <stop edge="977360507#0" parking="true" duration="0"/>
  </trip>
  <trip id="dongchong_motorcycle_37" type="motorcycle" depart="47" departLane="best" from="1163782197#2" to="977360507#0">
    <stop edge="977360507#0" parking="true" duration="0"/>
  </trip>
  <trip id="dongchong_motorcycle_38" type="motorcycle" depart="48" departLane="best" from="1163782197#2" to="977360507#0">
    <stop edge="977360507#0" parking="true" duration="0"/>
  </trip>
  <trip id="dongchong_motorcycle_39" type="motorcycle" depart="49" departLane="best" from="1163782197#2" to="977360507#0">
    <stop edge="977360507#0" parking="true" duration="0"/>
  </trip>
  <trip id="dongchong_motorcycle_40" type="motorcycle" depart="50" departLane="best" from="1163782197#2" to="977360507#0">
    <stop edge="977360507#0" parking="true" duration="0"/>
  </trip>
  <trip id="dongchong_motorcycle_41" type="motorcycle" depart="51" departLane="best" from="1163782197#2" to="977360507#0">
    <stop edge="977360507#0" parking="true" duration="0"/>
  </trip>
  <trip id="dongchong_motorcycle_42" type="motorcycle" depart="52" departLane="best" from="1163782197#2" to="977360507#0">
    <stop edge="977360507#0" parking="true" duration="0"/>
  </trip>
  <trip id="dongchong_motorcycle_43" type="motorcycle" depart="53" departLane="best" from="1163782197#2" to="977360507#0">
    <stop edge="977360507#0" parking="true" duration="0"/>
  </trip>
  <trip id="dongchong_motorcycle_44" type="motorcycle" depart="54" departLane="best" from="1163782197#2" to="977360507#0">
    <stop edge="977360507#0" parking="true" duration="0"/>
  </trip>
  <trip id="dongchong_motorcycle_45" type="motorcycle" depart="55" departLane="best" from="1163782197#2" to="977360507#0">
    <stop edge="977360507#0" parking="true" duration="0"/>
  </trip>
  <trip id="dongchong_motorcycle_46" type="motorcycle" depart="56" departLane="best" from="1163782197#2" to="977360507#0">
    <stop edge="977360507#0" parking="true" duration="0"/>
  </trip>
  <trip id="dongchong_motorcycle_47" type="motorcycle" depart="57" departLane="best" from="1163782197#2" to="977360507#0">
    <stop edge="977360507#0" parking="true" duration="0"/>
  </trip>
  <trip id="dongchong_motorcycle_48" type="motorcycle" depart="58" departLane="best" from="1163782197#2" to="977360507#0">
    <stop edge="977360507#0" parking="true" duration="0"/>
  </trip>
  <trip id="dongchong_motorcycle_49" type="motorcycle" depart="59" departLane="best" from="1163782197#2" to="977360507#0">
    <stop edge="977360507#0" parking="true" duration="0"/>
  </trip>
  <trip id="dongchong_motorcycle_50" type="motorcycle" depart="60" departLane="best" from="1163782197#2" to="977360507#0">
    <stop edge="977360507#0" parking="true" duration="0"/>
  </trip>
  <trip id="dongchong_motorcycle_51" type="motorcycle" depart="61" departLane="best" from="1163782197#2" to="977360507#0">
    <stop edge="977360507#0" parking="true" duration="0"/>
  </trip>
  <trip id="dongchong_motorcycle_52" type="motorcycle" depart="62" departLane="best" from="1163782197#2" to="977360507#0">
    <stop edge="977360507#0" parking="true" duration="0"/>
  </trip>
  <trip id="dongchong_motorcycle_53" type="motorcycle" depart="63" departLane="best" from="1163782197#2" to="977360507#0">
    <stop edge="977360507#0" parking="true" duration="0"/>
  </trip>
  <trip id="dongchong_motorcycle_54" type="motorcycle" depart="64" departLane="best" from="1163782197#2" to="977360507#0">
    <stop edge="977360507#0" parking="true" duration="0"/>
  </trip>
  <trip id="dongchong_motorcycle_55" type="motorcycle" depart="65" departLane="best" from="1163782197#2" to="977360507#0">
    <stop edge="977360507#0" parking="true" duration="0"/>
  </trip>
  <trip id="dongchong_motorcycle_56" type="motorcycle" depart="66" departLane="best" from="1163782197#2" to="977360507#0">
    <stop edge="977360507#0" parking="true" duration="0"/>
  </trip>
  <trip id="dongchong_motorcycle_57" type="motorcycle" depart="67" departLane="best" from="1163782197#2" to="977360507#0">
    <stop edge="977360507#0" parking="true" duration="0"/>
  </trip>
  <trip id="dongchong_motorcycle_58" type="motorcycle" depart="68" departLane="best" from="1163782197#2" to="977360507#0">
    <stop edge="977360507#0" parking="true" duration="0"/>
  </trip>
  <trip id="dongchong_motorcycle_59" type="motorcycle" depart="69" departLane="best" from="1163782197#2" to="977360507#0">
    <stop edge="977360507#0" parking="true" duration="0"/>
  </trip>
  <trip id="dongchong_motorcycle_60" type="motorcycle" depart="70" departLane="best" from="1163782197#2" to="977360507#0">
    <stop edge="977360507#0" parking="true" duration="0"/>
  </trip>
  <trip id="dongchong_motorcycle_61" type="motorcycle" depart="71" departLane="best" from="1163782197#2" to="977360507#0">
    <stop edge="977360507#0" parking="true" duration="0"/>
  </trip>
  <trip id="dongchong_motorcycle_62" type="motorcycle" depart="72" departLane="best" from="1163782197#2" to="977360507#0">
    <stop edge="977360507#0" parking="true" duration="0"/>
  </trip>
  <trip id="dongchong_motorcycle_63" type="motorcycle" depart="73" departLane="best" from="1163782197#2" to="977360507#0">
    <stop edge="977360507#0" parking="true" duration="0"/>
  </trip>
  <trip id="dongchong_motorcycle_64" type="motorcycle" depart="74" departLane="best" from="1163782197#2" to="977360507#0">
    <stop edge="977360507#0" parking="true" duration="0"/>
  </trip>
  <trip id="dongchong_motorcycle_65" type="motorcycle" depart="75" departLane="best" from="1163782197#2" to="977360507#0">
    <stop edge="977360507#0" parking="true" duration="0"/>
  </trip>
  <trip id="dongchong_motorcycle_66" type="motorcycle" depart="76" departLane="best" from="1163782197#2" to="977360507#0">
    <stop edge="977360507#0" parking="true" duration="0"/>
  </trip>
  <trip id="dongchong_motorcycle_67" type="motorcycle" depart="77" departLane="best" from="1163782197#2" to="977360507#0">
    <stop edge="977360507#0" parking="true" duration="0"/>
  </trip>
  <trip id="dongchong_motorcycle_68" type="motorcycle" depart="78" departLane="best" from="1163782197#2" to="977360507#0">
    <stop edge="977360507#0" parking="true" duration="0"/>
  </trip>
  <trip id="dongchong_motorcycle_69" type="motorcycle" depart="79" departLane="best" from="1163782197#2" to="977360507#0">
    <stop edge="977360507#0" parking="true" duration="0"/>
  </trip>
  <trip id="dongchong_motorcycle_70" type="motorcycle" depart="80" departLane="best" from="1163782197#2" to="977360507#0">
    <stop edge="977360507#0" parking="true" duration="0"/>
  </trip>
  <trip id="dongchong_motorcycle_71" type="motorcycle" depart="81" departLane="best" from="1163782197#2" to="977360507#0">
    <stop edge="977360507#0" parking="true" duration="0"/>
  </trip>
  <trip id="dongchong_motorcycle_72" type="motorcycle" depart="82" departLane="best" from="1163782197#2" to="977360507#0">
    <stop edge="977360507#0" parking="true" duration="0"/>
  </trip>
  <trip id="dongchong_motorcycle_73" type="motorcycle" depart="83" departLane="best" from="1163782197#2" to="977360507#0">
    <stop edge="977360507#0" parking="true" duration="0"/>
  </trip>
  <trip id="dongchong_motorcycle_74" type="motorcycle" depart="84" departLane="best" from="1163782197#2" to="977360507#0">
    <stop edge="977360507#0" parking="true" duration="0"/>
  </trip>
  <trip id="dongchong_motorcycle_75" type="motorcycle" depart="85" departLane="best" from="1163782197#2" to="977360507#0">
    <stop edge="977360507#0" parking="true" duration="0"/>
  </trip>
  <trip id="dongchong_motorcycle_76" type="motorcycle" depart="86" departLane="best" from="1163782197#2" to="977360507#0">
    <stop edge="977360507#0" parking="true" duration="0"/>
  </trip>
  <trip id="dongchong_motorcycle_77" type="motorcycle" depart="87" departLane="best" from="1163782197#2" to="977360507#0">
    <stop edge="977360507#0" parking="true" duration="0"/>
  </trip>
  <trip id="dongchong_motorcycle_78" type="motorcycle" depart="88" departLane="best" from="1163782197#2" to="977360507#0">
    <stop edge="977360507#0" parking="true" duration="0"/>
  </trip>
  <trip id="dongchong_motorcycle_79" type="motorcycle" depart="89" departLane="best" from="1163782197#2" to="977360507#0">
    <stop edge="977360507#0" parking="true" duration="0"/>
  </trip>
  <trip id="beibi_motorcycle_0" type="motorcycle" depart="100" departLane="best" from="296185646#0" to="-51691749#4">
    <stop edge="-51691749#4" parking="true" duration="0"/>
  </trip>
  <trip id="beibi_motorcycle_1" type="motorcycle" depart="101" departLane="best" from="296185646#0" to="-51691749#4">
    <stop edge="-51691749#4" parking="true" duration="0"/>
  </trip>
  <trip id="beibi_motorcycle_2" type="motorcycle" depart="102" departLane="best" from="296185646#0" to="-51691749#4">
    <stop edge="-51691749#4" parking="true" duration="0"/>
  </trip>
  <trip id="beibi_motorcycle_3" type="motorcycle" depart="103" departLane="best" from="296185646#0" to="-51691749#4">
    <stop edge="-51691749#4" parking="true" duration="0"/>
  </trip>
  <trip id="beibi_motorcycle_4" type="motorcycle" depart="104" departLane="best" from="296185646#0" to="-51691749#4">
    <stop edge="-51691749#4" parking="true" duration="0"/>
  </trip>
  <trip id="beibi_motorcycle_5" type="motorcycle" depart="105" departLane="best" from="296185646#0" to="-51691749#4">
    <stop edge="-51691749#4" parking="true" duration="0"/>
  </trip>
  <trip id="beibi_motorcycle_6" type="motorcycle" depart="106" departLane="best" from="296185646#0" to="-51691749#4">
    <stop edge="-51691749#4" parking="true" duration="0"/>
  </trip>
  <trip id="beibi_motorcycle_7" type="motorcycle" depart="107" departLane="best" from="296185646#0" to="-51691749#4">
    <stop edge="-51691749#4" parking="true" duration="0"/>
  </trip>
  <trip id="beibi_motorcycle_8" type="motorcycle" depart="108" departLane="best" from="296185646#0" to="-51691749#4">
    <stop edge="-51691749#4" parking="true" duration="0"/>
  </trip>
  <trip id="beibi_motorcycle_9" type="motorcycle" depart="109" departLane="best" from="296185646#0" to="-51691749#4">
    <stop edge="-51691749#4" parking="true" duration="0"/>
  </trip>
  <trip id="beibi_motorcycle_10" type="motorcycle" depart="110" departLane="best" from="296185646#0" to="-51691749#4">
    <stop edge="-51691749#4" parking="true" duration="0"/>
  </trip>
  <trip id="beibi_motorcycle_11" type="motorcycle" depart="111" departLane="best" from="296185646#0" to="-51691749#4">
    <stop edge="-51691749#4" parking="true" duration="0"/>
  </trip>
  <trip id="beibi_motorcycle_12" type="motorcycle" depart="112" departLane="best" from="296185646#0" to="-51691749#4">
    <stop edge="-51691749#4" parking="true" duration="0"/>
  </trip>
  <trip id="beibi_motorcycle_13" type="motorcycle" depart="113" departLane="best" from="296185646#0" to="-51691749#4">
    <stop edge="-51691749#4" parking="true" duration="0"/>
  </trip>
  <trip id="beibi_motorcycle_14" type="motorcycle" depart="114" departLane="best" from="296185646#0" to="-51691749#4">
    <stop edge="-51691749#4" parking="true" duration="0"/>
  </trip>
  <trip id="beibi_motorcycle_15" type="motorcycle" depart="115" departLane="best" from="296185646#0" to="-51691749#4">
    <stop edge="-51691749#4" parking="true" duration="0"/>
  </trip>
  <trip id="beibi_motorcycle_16" type="motorcycle" depart="116" departLane="best" from="296185646#0" to="-51691749#4">
    <stop edge="-51691749#4" parking="true" duration="0"/>
  </trip>
  <trip id="beibi_motorcycle_17" type="motorcycle" depart="117" departLane="best" from="296185646#0" to="-51691749#4">
    <stop edge="-51691749#4" parking="true" duration="0"/>
  </trip>
  <trip id="beibi_motorcycle_18" type="motorcycle" depart="118" departLane="best" from="296185646#0" to="-51691749#4">
    <stop edge="-51691749#4" parking="true" duration="0"/>
  </trip>
  <trip id="beibi_motorcycle_19" type="motorcycle" depart="119" departLane="best" from="296185646#0" to="-51691749#4">
    <stop edge="-51691749#4" parking="true" duration="0"/>
  </trip>
  <trip id="beibi_motorcycle_20" type="motorcycle" depart="120" departLane="best" from="296185646#0" to="-51691749#4">
    <stop edge="-51691749#4" parking="true" duration="0"/>
  </trip>
  <trip id="beibi_motorcycle_21" type="motorcycle" depart="121" departLane="best" from="296185646#0" to="-51691749#4">
    <stop edge="-51691749#4" parking="true" duration="0"/>
  </trip>
  <trip id="beibi_motorcycle_22" type="motorcycle" depart="122" departLane="best" from="296185646#0" to="-51691749#4">
    <stop edge="-51691749#4" parking="true" duration="0"/>
  </trip>
  <trip id="beibi_motorcycle_23" type="motorcycle" depart="123" departLane="best" from="296185646#0" to="-51691749#4">
    <stop edge="-51691749#4" parking="true" duration="0"/>
  </trip>
  <trip id="beibi_motorcycle_24" type="motorcycle" depart="124" departLane="best" from="296185646#0" to="-51691749#4">
    <stop edge="-51691749#4" parking="true" duration="0"/>
  </trip>
  <trip id="beibi_motorcycle_25" type="motorcycle" depart="125" departLane="best" from="296185646#0" to="-51691749#4">
    <stop edge="-51691749#4" parking="true" duration="0"/>
  </trip>
  <trip id="beibi_motorcycle_26" type="motorcycle" depart="126" departLane="best" from="296185646#0" to="-51691749#4">
    <stop edge="-51691749#4" parking="true" duration="0"/>
  </trip>
  <trip id="beibi_motorcycle_27" type="motorcycle" depart="127" departLane="best" from="296185646#0" to="-51691749#4">
    <stop edge="-51691749#4" parking="true" duration="0"/>
  </trip>
  <trip id="beibi_motorcycle_28" type="motorcycle" depart="128" departLane="best" from="296185646#0" to="-51691749#4">
    <stop edge="-51691749#4" parking="true" duration="0"/>
  </trip>
  <trip id="beibi_motorcycle_29" type="motorcycle" depart="129" departLane="best" from="296185646#0" to="-51691749#4">
    <stop edge="-51691749#4" parking="true" duration="0"/>
  </trip>
  <trip id="beibi_motorcycle_30" type="motorcycle" depart="130" departLane="best" from="296185646#0" to="-51691749#4">
    <stop edge="-51691749#4" parking="true" duration="0"/>
  </trip>
  <trip id="beibi_motorcycle_31" type="motorcycle" depart="131" departLane="best" from="296185646#0" to="-51691749#4">
    <stop edge="-51691749#4" parking="true" duration="0"/>
  </trip>
  <trip id="beibi_motorcycle_32" type="motorcycle" depart="132" departLane="best" from="296185646#0" to="-51691749#4">
    <stop edge="-51691749#4" parking="true" duration="0"/>
  </trip>
  <trip id="beibi_motorcycle_33" type="motorcycle" depart="133" departLane="best" from="296185646#0" to="-51691749#4">
    <stop edge="-51691749#4" parking="true" duration="0"/>
  </trip>
  <trip id="beibi_motorcycle_34" type="motorcycle" depart="134" departLane="best" from="296185646#0" to="-51691749#4">
    <stop edge="-51691749#4" parking="true" duration="0"/>
  </trip>
  <trip id="beibi_motorcycle_35" type="motorcycle" depart="135" departLane="best" from="296185646#0" to="-51691749#4">
    <stop edge="-51691749#4" parking="true" duration="0"/>
  </trip>
  <trip id="beibi_motorcycle_36" type="motorcycle" depart="136" departLane="best" from="296185646#0" to="-51691749#4">
    <stop edge="-51691749#4" parking="true" duration="0"/>
  </trip>
  <trip id="beibi_motorcycle_37" type="motorcycle" depart="137" departLane="best" from="296185646#0" to="-51691749#4">
    <stop edge="-51691749#4" parking="true" duration="0"/>
  </trip>
  <trip id="beibi_motorcycle_38" type="motorcycle" depart="138" departLane="best" from="296185646#0" to="-51691749#4">
    <stop edge="-51691749#4" parking="true" duration="0"/>
  </trip>
  <trip id="beibi_motorcycle_39" type="motorcycle" depart="139" departLane="best" from="296185646#0" to="-51691749#4">
    <stop edge="-51691749#4" parking="true" duration="0"/>
  </trip>
  <trip id="beibi_motorcycle_40" type="motorcycle" depart="140" departLane="best" from="296185646#0" to="-51691749#4">
    <stop edge="-51691749#4" parking="true" duration="0"/>
  </trip>
  <trip id="beibi_motorcycle_41" type="motorcycle" depart="141" departLane="best" from="296185646#0" to="-51691749#4">
    <stop edge="-51691749#4" parking="true" duration="0"/>
  </trip>
  <trip id="beibi_motorcycle_42" type="motorcycle" depart="142" departLane="best" from="296185646#0" to="-51691749#4">
    <stop edge="-51691749#4" parking="true" duration="0"/>
  </trip>
  <trip id="beibi_motorcycle_43" type="motorcycle" depart="143" departLane="best" from="296185646#0" to="-51691749#4">
    <stop edge="-51691749#4" parking="true" duration="0"/>
  </trip>
  <trip id="beibi_motorcycle_44" type="motorcycle" depart="144" departLane="best" from="296185646#0" to="-51691749#4">
    <stop edge="-51691749#4" parking="true" duration="0"/>
  </trip>
  <trip id="beibi_motorcycle_45" type="motorcycle" depart="145" departLane="best" from="296185646#0" to="-51691749#4">
    <stop edge="-51691749#4" parking="true" duration="0"/>
  </trip>
  <trip id="beibi_motorcycle_46" type="motorcycle" depart="146" departLane="best" from="296185646#0" to="-51691749#4">
    <stop edge="-51691749#4" parking="true" duration="0"/>
  </trip>
  <trip id="beibi_motorcycle_47" type="motorcycle" depart="147" departLane="best" from="296185646#0" to="-51691749#4">
    <stop edge="-51691749#4" parking="true" duration="0"/>
  </trip>
  <trip id="beibi_motorcycle_48" type="motorcycle" depart="148" departLane="best" from="296185646#0" to="-51691749#4">
    <stop edge="-51691749#4" parking="true" duration="0"/>
  </trip>
  <trip id="beibi_motorcycle_49" type="motorcycle" depart="149" departLane="best" from="296185646#0" to="-51691749#4">
    <stop edge="-51691749#4" parking="true" duration="0"/>
  </trip>
  <trip id="beibi_motorcycle_50" type="motorcycle" depart="150" departLane="best" from="296185646#0" to="-51691749#4">
    <stop edge="-51691749#4" parking="true" duration="0"/>
  </trip>
  <trip id="beibi_motorcycle_51" type="motorcycle" depart="151" departLane="best" from="296185646#0" to="-51691749#4">
    <stop edge="-51691749#4" parking="true" duration="0"/>
  </trip>
  <trip id="beibi_motorcycle_52" type="motorcycle" depart="152" departLane="best" from="296185646#0" to="-51691749#4">
    <stop edge="-51691749#4" parking="true" duration="0"/>
  </trip>
  <trip id="beibi_motorcycle_53" type="motorcycle" depart="153" departLane="best" from="296185646#0" to="-51691749#4">
    <stop edge="-51691749#4" parking="true" duration="0"/>
  </trip>
  <trip id="beibi_motorcycle_54" type="motorcycle" depart="154" departLane="best" from="296185646#0" to="-51691749#4">
    <stop edge="-51691749#4" parking="true" duration="0"/>
  </trip>
  <trip id="beibi_motorcycle_55" type="motorcycle" depart="155" departLane="best" from="296185646#0" to="-51691749#4">
    <stop edge="-51691749#4" parking="true" duration="0"/>
  </trip>
  <trip id="beibi_motorcycle_56" type="motorcycle" depart="156" departLane="best" from="296185646#0" to="-51691749#4">
    <stop edge="-51691749#4" parking="true" duration="0"/>
  </trip>
  <trip id="beibi_motorcycle_57" type="motorcycle" depart="157" departLane="best" from="296185646#0" to="-51691749#4">
    <stop edge="-51691749#4" parking="true" duration="0"/>
  </trip>
  <trip id="beibi_motorcycle_58" type="motorcycle" depart="158" departLane="best" from="296185646#0" to="-51691749#4">
    <stop edge="-51691749#4" parking="true" duration="0"/>
  </trip>
  <trip id="beibi_motorcycle_59" type="motorcycle" depart="159" departLane="best" from="296185646#0" to="-51691749#4">
    <stop edge="-51691749#4" parking="true" duration="0"/>
  </trip>
  <trip id="beibi_motorcycle_60" type="motorcycle" depart="160" departLane="best" from="296185646#0" to="-51691749#4">
    <stop edge="-51691749#4" parking="true" duration="0"/>
  </trip>
  <trip id="beibi_motorcycle_61" type="motorcycle" depart="161" departLane="best" from="296185646#0" to="-51691749#4">
    <stop edge="-51691749#4" parking="true" duration="0"/>
  </trip>
  <trip id="beibi_motorcycle_62" type="motorcycle" depart="162" departLane="best" from="296185646#0" to="-51691749#4">
    <stop edge="-51691749#4" parking="true" duration="0"/>
  </trip>
  <trip id="beibi_motorcycle_63" type="motorcycle" depart="163" departLane="best" from="296185646#0" to="-51691749#4">
    <stop edge="-51691749#4" parking="true" duration="0"/>
  </trip>
  <trip id="beibi_motorcycle_64" type="motorcycle" depart="164" departLane="best" from="296185646#0" to="-51691749#4">
    <stop edge="-51691749#4" parking="true" duration="0"/>
  </trip>
  <trip id="beibi_motorcycle_65" type="motorcycle" depart="165" departLane="best" from="296185646#0" to="-51691749#4">
    <stop edge="-51691749#4" parking="true" duration="0"/>
  </trip>
  <trip id="beibi_motorcycle_66" type="motorcycle" depart="166" departLane="best" from="296185646#0" to="-51691749#4">
    <stop edge="-51691749#4" parking="true" duration="0"/>
  </trip>
  <trip id="beibi_motorcycle_67" type="motorcycle" depart="167" departLane="best" from="296185646#0" to="-51691749#4">
    <stop edge="-51691749#4" parking="true" duration="0"/>
  </trip>
  <trip id="beibi_motorcycle_68" type="motorcycle" depart="168" departLane="best" from="296185646#0" to="-51691749#4">
    <stop edge="-51691749#4" parking="true" duration="0"/>
  </trip>
  <trip id="beibi_motorcycle_69" type="motorcycle" depart="169" departLane="best" from="296185646#0" to="-51691749#4">
    <stop edge="-51691749#4" parking="true" duration="0"/>
  </trip>
  <trip id="beibi_motorcycle_70" type="motorcycle" depart="170" departLane="best" from="296185646#0" to="-51691749#4">
    <stop edge="-51691749#4" parking="true" duration="0"/>
  </trip>
  <trip id="beibi_motorcycle_71" type="motorcycle" depart="171" departLane="best" from="296185646#0" to="-51691749#4">
    <stop edge="-51691749#4" parking="true" duration="0"/>
  </trip>
  <trip id="beibi_motorcycle_72" type="motorcycle" depart="172" departLane="best" from="296185646#0" to="-51691749#4">
    <stop edge="-51691749#4" parking="true" duration="0"/>
  </trip>
  <trip id="beibi_motorcycle_73" type="motorcycle" depart="173" departLane="best" from="296185646#0" to="-51691749#4">
    <stop edge="-51691749#4" parking="true" duration="0"/>
  </trip>
  <trip id="beibi_motorcycle_74" type="motorcycle" depart="174" departLane="best" from="296185646#0" to="-51691749#4">
    <stop edge="-51691749#4" parking="true" duration="0"/>
  </trip>
  <trip id="beibi_motorcycle_75" type="motorcycle" depart="175" departLane="best" from="296185646#0" to="-51691749#4">
    <stop edge="-51691749#4" parking="true" duration="0"/>
  </trip>
  <trip id="beibi_motorcycle_76" type="motorcycle" depart="176" departLane="best" from="296185646#0" to="-51691749#4">