<?xml version="1.0" ?>
<routes xmlns:xsi="http://www.w3.org/2001/XMLSchema-instance" xsi:noNamespaceSchemaLocation="http://sumo.dlr.de/xsd/routes_file.xsd">
  <vType id="bus" vClass="bus" maxSpeed="60"/>
  <trip id="dongchong_bus_0" type="bus" depart="10" departLane="best" from="1163782197#2" to="977360507#0">
    <stop edge="977360507#0" parking="true" duration="0"/>
  </trip>
  <trip id="dongchong_bus_1" type="bus" depart="11" departLane="best" from="1163782197#2" to="977360507#0">
    <stop edge="977360507#0" parking="true" duration="0"/>
  </trip>
  <trip id="dongchong_bus_2" type="bus" depart="12" departLane="best" from="1163782197#2" to="977360507#0">
    <stop edge="977360507#0" parking="true" duration="0"/>
  </trip>
  <trip id="dongchong_bus_3" type="bus" depart="13" departLane="best" from="1163782197#2" to="977360507#0">
    <stop edge="977360507#0" parking="true" duration="0"/>
  </trip>
  <trip id="dongchong_bus_4" type="bus" depart="14" departLane="best" from="1163782197#2" to="977360507#0">
    <stop edge="977360507#0" parking="true" duration="0"/>
  </trip>
  <trip id="liujin_bus_0" type="bus" depart="85" departLane="best" from="-474258045" to="-51691749#4">
    <stop edge="-51691749#4" parking="true" duration="0"/>
  </trip>
  <trip id="liujin_bus_1" type="bus" depart="86" departLane="best" from="-474258045" to="-51691749#4">
    <stop edge="-51691749#4" parking="true" duration="0"/>
  </trip>
  <trip id="liujin_bus_2" type="bus" depart="87" departLane="best" from="-474258045" to="-51691749#4">
    <stop edge="-51691749#4" parking="true" duration="0"/>
  </trip>
  <trip id="liujin_bus_3" type="bus" depart="88" departLane="best" from="-474258045" to="-51691749#4">
    <stop edge="-51691749#4" parking="true" duration="0"/>
  </trip>
  <trip id="liujin_bus_4" type="bus" depart="89" departLane="best" from="-474258045" to="-51691749#4">
    <stop edge="-51691749#4" parking="true" duration="0"/>
  </trip>
</routes>
