<?xml version="1.0" ?>
<routes xmlns:xsi="http://www.w3.org/2001/XMLSchema-instance" xsi:noNamespaceSchemaLocation="http://sumo.dlr.de/xsd/routes_file.xsd">
  <vType id="public_moped" vClass="moped" maxSpeed="40"/>
  <trip id="xiaofang_moped_0_beibi" type="public_moped" depart="120" departLane="best" from="-871617350#0" to="543863877#1">
    <stop edge="296185646#0" parking="true" duration="0"/>
    <stop edge="543863877#1" parking="true" duration="0"/>
    <stop edge="296185646#0" parking="true" duration="0"/>
    <stop edge="543863877#1" parking="true" duration="0"/>
    <stop edge="296185646#0" parking="true" duration="0"/>
    <stop edge="543863877#1" parking="true" duration="0"/>
    <stop edge="296185646#0" parking="true" duration="0"/>
    <stop edge="543863877#1" parking="true" duration="0"/>
    <stop edge="296185646#0" parking="true" duration="0"/>
    <stop edge="543863877#1" parking="true" duration="0"/>
    <stop edge="296185646#0" parking="true" duration="0"/>
    <stop edge="543863877#1" parking="true" duration="0"/>
    <stop edge="296185646#0" parking="true" duration="0"/>
    <stop edge="543863877#1" parking="true" duration="0"/>
    <stop edge="296185646#0" parking="true" duration="0"/>
    <stop edge="543863877#1" parking="true" duration="0"/>
    <stop edge="296185646#0" parking="true" duration="0"/>
    <stop edge="543863877#1" parking="true" duration="0"/>
    <stop edge="296185646#0" parking="true" duration="0"/>
    <stop edge="543863877#1" parking="true" duration="0"/>
    <stop edge="296185646#0" parking="true" duration="0"/>
    <stop edge="543863877#1" parking="true" duration="0"/>
    <stop edge="296185646#0" parking="true" duration="0"/>
    <stop edge="543863877#1" parking="true" duration="0"/>
    <stop edge="296185646#0" parking="true" duration="0"/>
    <stop edge="543863877#1" parking="true" duration="0"/>
    <stop edge="296185646#0" parking="true" duration="0"/>
    <stop edge="543863877#1" parking="true" duration="0"/>
    <stop edge="296185646#0" parking="true" duration="0"/>
    <stop edge="543863877#1" parking="true" duration="0"/>
    <stop edge="296185646#0" parking="true" duration="0"/>
    <stop edge="543863877#1" parking="true" duration="0"/>
    <stop edge="296185646#0" parking="true" duration="0"/>
    <stop edge="543863877#1" parking="true" duration="0"/>
    <stop edge="296185646#0" parking="true" duration="0"/>
    <stop edge="543863877#1" parking="true" duration="0"/>
    <stop edge="296185646#0" parking="true" duration="0"/>
    <stop edge="543863877#1" parking="true" duration="0"/>
    <stop edge="296185646#0" parking="true" duration="0"/>
    <stop edge="543863877#1" parking="true" duration="0"/>
    <stop edge="296185646#0" parking="true" duration="0"/>
    <stop edge="543863877#1" parking="true" duration="0"/>
    <stop edge="296185646#0" parking="true" duration="0"/>
    <stop edge="543863877#1" parking="true" duration="0"/>
    <stop edge="296185646#0" parking="true" duration="0"/>
    <stop edge="543863877#1" parking="true" duration="0"/>
    <stop edge="296185646#0" parking="true" duration="0"/>
    <stop edge="543863877#1" parking="true" duration="0"/>
    <stop edge="296185646#0" parking="true" duration="0"/>
    <stop edge="543863877#1" parking="true" duration="0"/>
    <stop edge="296185646#0" parking="true" duration="0"/>
    <stop edge="543863877#1" parking="true" duration="0"/>
  </trip>
  <trip id="xiaofang_moped_1_beibi" type="public_moped" depart="121" departLane="best" from="-871617350#0" to="543863877#1">
    <stop edge="296185646#0" parking="true" duration="0"/>
    <stop edge="543863877#1" parking="true" duration="0"/>
    <stop edge="296185646#0" parking="true" duration="0"/>
    <stop edge="543863877#1" parking="true" duration="0"/>
    <stop edge="296185646#0" parking="true" duration="0"/>
    <stop edge="543863877#1" parking="true" duration="0"/>
    <stop edge="296185646#0" parking="true" duration="0"/>
    <stop edge="543863877#1" parking="true" duration="0"/>
    <stop edge="296185646#0" parking="true" duration="0"/>
    <stop edge="543863877#1" parking="true" duration="0"/>
    <stop edge="296185646#0" parking="true" duration="0"/>
    <stop edge="543863877#1" parking="true" duration="0"/>
    <stop edge="296185646#0" parking="true" duration="0"/>
    <stop edge="543863877#1" parking="true" duration="0"/>
    <stop edge="296185646#0" parking="true" duration="0"/>
    <stop edge="543863877#1" parking="true" duration="0"/>
    <stop edge="296185646#0" parking="true" duration="0"/>
    <stop edge="543863877#1" parking="true" duration="0"/>
    <stop edge="296185646#0" parking="true" duration="0"/>
    <stop edge="543863877#1" parking="true" duration="0"/>
    <stop edge="296185646#0" parking="true" duration="0"/>
    <stop edge="543863877#1" parking="true" duration="0"/>
    <stop edge="296185646#0" parking="true" duration="0"/>
    <stop edge="543863877#1" parking="true" duration="0"/>
    <stop edge="296185646#0" parking="true" duration="0"/>
    <stop edge="543863877#1" parking="true" duration="0"/>
    <stop edge="296185646#0" parking="true" duration="0"/>
    <stop edge="543863877#1" parking="true" duration="0"/>
    <stop edge="296185646#0" parking="true" duration="0"/>
    <stop edge="543863877#1" parking="true" duration="0"/>
    <stop edge="296185646#0" parking="true" duration="0"/>
    <stop edge="543863877#1" parking="true" duration="0"/>
    <stop edge="296185646#0" parking="true" duration="0"/>
    <stop edge="543863877#1" parking="true" duration="0"/>
    <stop edge="296185646#0" parking="true" duration="0"/>
    <stop edge="543863877#1" parking="true" duration="0"/>
    <stop edge="296185646#0" parking="true" duration="0"/>
    <stop edge="543863877#1" parking="true" duration="0"/>
    <stop edge="296185646#0" parking="true" duration="0"/>
    <stop edge="543863877#1" parking="true" duration="0"/>
    <stop edge="296185646#0" parking="true" duration="0"/>
    <stop edge="543863877#1" parking="true" duration="0"/>
    <stop edge="296185646#0" parking="true" duration="0"/>
    <stop edge="543863877#1" parking="true" duration="0"/>
    <stop edge="296185646#0" parking="true" duration="0"/>
    <stop edge="543863877#1" parking="true" duration="0"/>
    <stop edge="296185646#0" parking="true" duration="0"/>
    <stop edge="543863877#1" parking="true" duration="0"/>
    <stop edge="296185646#0" parking="true" duration="0"/>
    <stop edge="543863877#1" parking="true" duration="0"/>
    <stop edge="296185646#0" parking="true" duration="0"/>
    <stop edge="543863877#1" parking="true" duration="0"/>
  </trip>
  <trip id="xiaofang_moped_2_beibi" type="public_moped" depart="122" departLane="best" from="-871617350#0" to="543863877#1">
    <stop edge="296185646#0" parking="true" duration="0"/>
    <stop edge="543863877#1" parking="true" duration="0"/>
    <stop edge="296185646#0" parking="true" duration="0"/>
    <stop edge="543863877#1" parking="true" duration="0"/>
    <stop edge="296185646#0" parking="true" duration="0"/>
    <stop edge="543863877#1" parking="true" duration="0"/>
    <stop edge="296185646#0" parking="true" duration="0"/>
    <stop edge="543863877#1" parking="true" duration="0"/>
    <stop edge="296185646#0" parking="true" duration="0"/>
    <stop edge="543863877#1" parking="true" duration="0"/>
    <stop edge="296185646#0" parking="true" duration="0"/>
    <stop edge="543863877#1" parking="true" duration="0"/>
    <stop edge="296185646#0" parking="true" duration="0"/>
    <stop edge="543863877#1" parking="true" duration="0"/>
    <stop edge="296185646#0" parking="true" duration="0"/>
    <stop edge="543863877#1" parking="true" duration="0"/>
    <stop edge="296185646#0" parking="true" duration="0"/>
    <stop edge="543863877#1" parking="true" duration="0"/>
    <stop edge="296185646#0" parking="true" duration="0"/>
    <stop edge="543863877#1" parking="true" duration="0"/>
    <stop edge="296185646#0" parking="true" duration="0"/>
    <stop edge="543863877#1" parking="true" duration="0"/>
    <stop edge="296185646#0" parking="true" duration="0"/>
    <stop edge="543863877#1" parking="true" duration="0"/>
    <stop edge="296185646#0" parking="true" duration="0"/>
    <stop edge="543863877#1" parking="true" duration="0"/>
    <stop edge="296185646#0" parking="true" duration="0"/>
    <stop edge="543863877#1" parking="true" duration="0"/>
    <stop edge="296185646#0" parking="true" duration="0"/>
    <stop edge="543863877#1" parking="true" duration="0"/>
    <stop edge="296185646#0" parking="true" duration="0"/>
    <stop edge="543863877#1" parking="true" duration="0"/>
    <stop edge="296185646#0" parking="true" duration="0"/>
    <stop edge="543863877#1" parking="true" duration="0"/>
    <stop edge="296185646#0" parking="true" duration="0"/>
    <stop edge="543863877#1" parking="true" duration="0"/>
    <stop edge="296185646#0" parking="true" duration="0"/>
    <stop edge="543863877#1" parking="true" duration="0"/>
    <stop edge="296185646#0" parking="true" duration="0"/>
    <stop edge="543863877#1" parking="true" duration="0"/>
    <stop edge="296185646#0" parking="true" duration="0"/>
    <stop edge="543863877#1" parking="true" duration="0"/>
    <stop edge="296185646#0" parking="true" duration="0"/>
    <stop edge="543863877#1" parking="true" duration="0"/>
    <stop edge="296185646#0" parking="true" duration="0"/>
    <stop edge="543863877#1" parking="true" duration="0"/>
    <stop edge="296185646#0" parking="true" duration="0"/>
    <stop edge="543863877#1" parking="true" duration="0"/>
    <stop edge="296185646#0" parking="true" duration="0"/>
    <stop edge="543863877#1" parking="true" duration="0"/>
    <stop edge="296185646#0" parking="true" duration="0"/>
    <stop edge="543863877#1" parking="true" duration="0"/>
  </trip>
  <trip id="xiaofang_moped_3_beibi" type="public_moped" depart="123" departLane="best" from="-871617350#0" to="543863877#1">
    <stop edge="296185646#0" parking="true" duration="0"/>
    <stop edge="543863877#1" parking="true" duration="0"/>
    <stop edge="296185646#0" parking="true" duration="0"/>
    <stop edge="543863877#1" parking="true" duration="0"/>
    <stop edge="296185646#0" parking="true" duration="0"/>
    <stop edge="543863877#1" parking="true" duration="0"/>
    <stop edge="296185646#0" parking="true" duration="0"/>
    <stop edge="543863877#1" parking="true" duration="0"/>
    <stop edge="296185646#0" parking="true" duration="0"/>
    <stop edge="543863877#1" parking="true" duration="0"/>
    <stop edge="296185646#0" parking="true" duration="0"/>
    <stop edge="543863877#1" parking="true" duration="0"/>
    <stop edge="296185646#0" parking="true" duration="0"/>
    <stop edge="543863877#1" parking="true" duration="0"/>
    <stop edge="296185646#0" parking="true" duration="0"/>
    <stop edge="543863877#1" parking="true" duration="0"/>
    <stop edge="296185646#0" parking="true" duration="0"/>
    <stop edge="543863877#1" parking="true" duration="0"/>
    <stop edge="296185646#0" parking="true" duration="0"/>
    <stop edge="543863877#1" parking="true" duration="0"/>
    <stop edge="296185646#0" parking="true" duration="0"/>
    <stop edge="543863877#1" parking="true" duration="0"/>
    <stop edge="296185646#0" parking="true" duration="0"/>
    <stop edge="543863877#1" parking="true" duration="0"/>
    <stop edge="296185646#0" parking="true" duration="0"/>
    <stop edge="543863877#1" parking="true" duration="0"/>
    <stop edge="296185646#0" parking="true" duration="0"/>
    <stop edge="543863877#1" parking="true" duration="0"/>
    <stop edge="296185646#0" parking="true" duration="0"/>
    <stop edge="543863877#1" parking="true" duration="0"/>
    <stop edge="296185646#0" parking="true" duration="0"/>
    <stop edge="543863877#1" parking="true" duration="0"/>
    <stop edge="296185646#0" parking="true" duration="0"/>
    <stop edge="543863877#1" parking="true" duration="0"/>
    <stop edge="296185646#0" parking="true" duration="0"/>
    <stop edge="543863877#1" parking="true" duration="0"/>
    <stop edge="296185646#0" parking="true" duration="0"/>
    <stop edge="543863877#1" parking="true" duration="0"/>
    <stop edge="296185646#0" parking="true" duration="0"/>
    <stop edge="543863877#1" parking="true" duration="0"/>
    <stop edge="296185646#0" parking="true" duration="0"/>
    <stop edge="543863877#1" parking="true" duration="0"/>
    <stop edge="296185646#0" parking="true" duration="0"/>
    <stop edge="543863877#1" parking="true" duration="0"/>
    <stop edge="296185646#0" parking="true" duration="0"/>
    <stop edge="543863877#1" parking="true" duration="0"/>
    <stop edge="296185646#0" parking="true" duration="0"/>
    <stop edge="543863877#1" parking="true" duration="0"/>
    <stop edge="296185646#0" parking="true" duration="0"/>
    <stop edge="543863877#1" parking="true" duration="0"/>
    <stop edge="296185646#0" parking="true" duration="0"/>
    <stop edge="543863877#1" parking="true" duration="0"/>
  </trip>
  <trip id="xiaofang_moped_4_beibi" type="public_moped" depart="124" departLane="best" from="-871617350#0" to="543863877#1">
    <stop edge="296185646#0" parking="true" duration="0"/>
    <stop edge="543863877#1" parking="true" duration="0"/>
    <stop edge="296185646#0" parking="true" duration="0"/>
    <stop edge="543863877#1" parking="true" duration="0"/>
    <stop edge="296185646#0" parking="true" duration="0"/>
    <stop edge="543863877#1" parking="true" duration="0"/>
    <stop edge="296185646#0" parking="true" duration="0"/>
    <stop edge="543863877#1" parking="true" duration="0"/>
    <stop edge="296185646#0" parking="true" duration="0"/>
    <stop edge="543863877#1" parking="true" duration="0"/>
    <stop edge="296185646#0" parking="true" duration="0"/>
    <stop edge="543863877#1" parking="true" duration="0"/>
    <stop edge="296185646#0" parking="true" duration="0"/>
    <stop edge="543863877#1" parking="true" duration="0"/>
    <stop edge="296185646#0" parking="true" duration="0"/>
    <stop edge="543863877#1" parking="true" duration="0"/>
    <stop edge="296185646#0" parking="true" duration="0"/>
    <stop edge="543863877#1" parking="true" duration="0"/>
    <stop edge="296185646#0" parking="true" duration="0"/>
    <stop edge="543863877#1" parking="true" duration="0"/>
    <stop edge="296185646#0" parking="true" duration="0"/>
    <stop edge="543863877#1" parking="true" duration="0"/>
    <stop edge="296185646#0" parking="true" duration="0"/>
    <stop edge="543863877#1" parking="true" duration="0"/>
    <stop edge="296185646#0" parking="true" duration="0"/>
    <stop edge="543863877#1" parking="true" duration="0"/>
    <stop edge="296185646#0" parking="true" duration="0"/>
    <stop edge="543863877#1" parking="true" duration="0"/>
    <stop edge="296185646#0" parking="true" duration="0"/>
    <stop edge="543863877#1" parking="true" duration="0"/>
    <stop edge="296185646#0" parking="true" duration="0"/>
    <stop edge="543863877#1" parking="true" duration="0"/>
    <stop edge="296185646#0" parking="true" duration="0"/>
    <stop edge="543863877#1" parking="true" duration="0"/>
    <stop edge="296185646#0" parking="true" duration="0"/>
    <stop edge="543863877#1" parking="true" duration="0"/>
    <stop edge="296185646#0" parking="true" duration="0"/>
    <stop edge="543863877#1" parking="true" duration="0"/>
    <stop edge="296185646#0" parking="true" duration="0"/>
    <stop edge="543863877#1" parking="true" duration="0"/>
    <stop edge="296185646#0" parking="true" duration="0"/>
    <stop edge="543863877#1" parking="true" duration="0"/>
    <stop edge="296185646#0" parking="true" duration="0"/>
    <stop edge="543863877#1" parking="true" duration="0"/>
    <stop edge="296185646#0" parking="true" duration="0"/>
    <stop edge="543863877#1" parking="true" duration="0"/>
    <stop edge="296185646#0" parking="true" duration="0"/>
    <stop edge="543863877#1" parking="true" duration="0"/>
    <stop edge="296185646#0" parking="true" duration="0"/>
    <stop edge="543863877#1" parking="true" duration="0"/>
    <stop edge="296185646#0" parking="true" duration="0"/>
    <stop edge="543863877#1" parking="true" duration="0"/>
  </trip>
  <trip id="xiaofang_moped_5_beibi" type="public_moped" depart="125" departLane="best" from="-871617350#0" to="543863877#1">
    <stop edge="296185646#0" parking="true" duration="0"/>
    <stop edge="543863877#1" parking="true" duration="0"/>
    <stop edge="296185646#0" parking="true" duration="0"/>
    <stop edge="543863877#1" parking="true" duration="0"/>
    <stop edge="296185646#0" parking="true" duration="0"/>
    <stop edge="543863877#1" parking="true" duration="0"/>
    <stop edge="296185646#0" parking="true" duration="0"/>
    <stop edge="543863877#1" parking="true" duration="0"/>
    <stop edge="296185646#0" parking="true" duration="0"/>
    <stop edge="543863877#1" parking="true" duration="0"/>
    <stop edge="296185646#0" parking="true" duration="0"/>
    <stop edge="543863877#1" parking="true" duration="0"/>
    <stop edge="296185646#0" parking="true" duration="0"/>
    <stop edge="543863877#1" parking="true" duration="0"/>
    <stop edge="296185646#0" parking="true" duration="0"/>
    <stop edge="543863877#1" parking="true" duration="0"/>
    <stop edge="296185646#0" parking="true" duration="0"/>
    <stop edge="543863877#1" parking="true" duration="0"/>
    <stop edge="296185646#0" parking="true" duration="0"/>
    <stop edge="543863877#1" parking="true" duration="0"/>
    <stop edge="296185646#0" parking="true" duration="0"/>
    <stop edge="543863877#1" parking="true" duration="0"/>
    <stop edge="296185646#0" parking="true" duration="0"/>
    <stop edge="543863877#1" parking="true" duration="0"/>
    <stop edge="296185646#0" parking="true" duration="0"/>
    <stop edge="543863877#1" parking="true" duration="0"/>
    <stop edge="296185646#0" parking="true" duration="0"/>
    <stop edge="543863877#1" parking="true" duration="0"/>
    <stop edge="296185646#0" parking="true" duration="0"/>
    <stop edge="543863877#1" parking="true" duration="0"/>
    <stop edge="296185646#0" parking="true" duration="0"/>
    <stop edge="543863877#1" parking="true" duration="0"/>
    <stop edge="296185646#0" parking="true" duration="0"/>
    <stop edge="543863877#1" parking="true" duration="0"/>
    <stop edge="296185646#0" parking="true" duration="0"/>
    <stop edge="543863877#1" parking="true" duration="0"/>
    <stop edge="296185646#0" parking="true" duration="0"/>
    <stop edge="543863877#1" parking="true" duration="0"/>
    <stop edge="296185646#0" parking="true" duration="0"/>
    <stop edge="543863877#1" parking="true" duration="0"/>
    <stop edge="296185646#0" parking="true" duration="0"/>
    <stop edge="543863877#1" parking="true" duration="0"/>
    <stop edge="296185646#0" parking="true" duration="0"/>
    <stop edge="543863877#1" parking="true" duration="0"/>
    <stop edge="296185646#0" parking="true" duration="0"/>
    <stop edge="543863877#1" parking="true" duration="0"/>
    <stop edge="296185646#0" parking="true" duration="0"/>
    <stop edge="543863877#1" parking="true" duration="0"/>
    <stop edge="296185646#0" parking="true" duration="0"/>
    <stop edge="543863877#1" parking="true" duration="0"/>
    <stop edge="296185646#0" parking="true" duration="0"/>
    <stop edge="543863877#1" parking="true" duration="0"/>
  </trip>
  <trip id="xiaofang_moped_6_beibi" type="public_moped" depart="126" departLane="best" from="-871617350#0" to="543863877#1">
    <stop edge="296185646#0" parking="true" duration="0"/>
    <stop edge="543863877#1" parking="true" duration="0"/>
    <stop edge="296185646#0" parking="true" duration="0"/>
    <stop edge="543863877#1" parking="true" duration="0"/>
    <stop edge="296185646#0" parking="true" duration="0"/>
    <stop edge="543863877#1" parking="true" duration="0"/>
    <stop edge="296185646#0" parking="true" duration="0"/>
    <stop edge="543863877#1" parking="true" duration="0"/>
    <stop edge="296185646#0" parking="true" duration="0"/>
    <stop edge="543863877#1" parking="true" duration="0"/>
    <stop edge="296185646#0" parking="true" duration="0"/>
    <stop edge="543863877#1" parking="true" duration="0"/>
    <stop edge="296185646#0" parking="true" duration="0"/>
    <stop edge="543863877#1" parking="true" duration="0"/>
    <stop edge="296185646#0" parking="true" duration="0"/>
    <stop edge="543863877#1" parking="true" duration="0"/>
    <stop edge="296185646#0" parking="true" duration="0"/>
    <stop edge="543863877#1" parking="true" duration="0"/>
    <stop edge="296185646#0" parking="true" duration="0"/>
    <stop edge="543863877#1" parking="true" duration="0"/>
    <stop edge="296185646#0" parking="true" duration="0"/>
    <stop edge="543863877#1" parking="true" duration="0"/>
    <stop edge="296185646#0" parking="true" duration="0"/>
    <stop edge="543863877#1" parking="true" duration="0"/>
    <stop edge="296185646#0" parking="true" duration="0"/>
    <stop edge="543863877#1" parking="true" duration="0"/>
    <stop edge="296185646#0" parking="true" duration="0"/>
    <stop edge="543863877#1" parking="true" duration="0"/>
    <stop edge="296185646#0" parking="true" duration="0"/>
    <stop edge="543863877#1" parking="true" duration="0"/>
    <stop edge="296185646#0" parking="true" duration="0"/>
    <stop edge="543863877#1" parking="true" duration="0"/>
    <stop edge="296185646#0" parking="true" duration="0"/>
    <stop edge="543863877#1" parking="true" duration="0"/>
    <stop edge="296185646#0" parking="true" duration="0"/>
    <stop edge="543863877#1" parking="true" duration="0"/>
    <stop edge="296185646#0" parking="true" duration="0"/>
    <stop edge="543863877#1" parking="true" duration="0"/>
    <stop edge="296185646#0" parking="true" duration="0"/>
    <stop edge="543863877#1" parking="true" duration="0"/>
    <stop edge="296185646#0" parking="true" duration="0"/>
    <stop edge="543863877#1" parking="true" duration="0"/>
    <stop edge="296185646#0" parking="true" duration="0"/>
    <stop edge="543863877#1" parking="true" duration="0"/>
    <stop edge="296185646#0" parking="true" duration="0"/>
    <stop edge="543863877#1" parking="true" duration="0"/>
    <stop edge="296185646#0" parking="true" duration="0"/>
    <stop edge="543863877#1" parking="true" duration="0"/>
    <stop edge="296185646#0" parking="true" duration="0"/>
    <stop edge="543863877#1" parking="true" duration="0"/>
    <stop edge="296185646#0" parking="true" duration="0"/>
    <stop edge="543863877#1" parking="true" duration="0"/>
  </trip>
  <trip id="xiaofang_moped_7_beibi" type="public_moped" depart="127" departLane="best" from="-871617350#0" to="543863877#1">
    <stop edge="296185646#0" parking="true" duration="0"/>
    <stop edge="543863877#1" parking="true" duration="0"/>
    <stop edge="296185646#0" parking="true" duration="0"/>
    <stop edge="543863877#1" parking="true" duration="0"/>
    <stop edge="296185646#0" parking="true" duration="0"/>
    <stop edge="543863877#1" parking="true" duration="0"/>
    <stop edge="296185646#0" parking="true" duration="0"/>
    <stop edge="543863877#1" parking="true" duration="0"/>
    <stop edge="296185646#0" parking="true" duration="0"/>
    <stop edge="543863877#1" parking="true" duration="0"/>
    <stop edge="296185646#0" parking="true" duration="0"/>
    <stop edge="543863877#1" parking="true" duration="0"/>
    <stop edge="296185646#0" parking="true" duration="0"/>
    <stop edge="543863877#1" parking="true" duration="0"/>
    <stop edge="296185646#0" parking="true" duration="0"/>
    <stop edge="543863877#1" parking="true" duration="0"/>
    <stop edge="296185646#0" parking="true" duration="0"/>
    <stop edge="543863877#1" parking="true" duration="0"/>
    <stop edge="296185646#0" parking="true" duration="0"/>
    <stop edge="543863877#1" parking="true" duration="0"/>
    <stop edge="296185646#0" parking="true" duration="0"/>
    <stop edge="543863877#1" parking="true" duration="0"/>
    <stop edge="296185646#0" parking="true" duration="0"/>
    <stop edge="543863877#1" parking="true" duration="0"/>
    <stop edge="296185646#0" parking="true" duration="0"/>
    <stop edge="543863877#1" parking="true" duration="0"/>
    <stop edge="296185646#0" parking="true" duration="0"/>
    <stop edge="543863877#1" parking="true" duration="0"/>
    <stop edge="296185646#0" parking="true" duration="0"/>
    <stop edge="543863877#1" parking="true" duration="0"/>
    <stop edge="296185646#0" parking="true" duration="0"/>
    <stop edge="543863877#1" parking="true" duration="0"/>
    <stop edge="296185646#0" parking="true" duration="0"/>
    <stop edge="543863877#1" parking="true" duration="0"/>
    <stop edge="296185646#0" parking="true" duration="0"/>
    <stop edge="543863877#1" parking="true" duration="0"/>
    <stop edge="296185646#0" parking="true" duration="0"/>
    <stop edge="543863877#1" parking="true" duration="0"/>
    <stop edge="296185646#0" parking="true" duration="0"/>
    <stop edge="543863877#1" parking="true" duration="0"/>
    <stop edge="296185646#0" parking="true" duration="0"/>
    <stop edge="543863877#1" parking="true" duration="0"/>
    <stop edge="296185646#0" parking="true" duration="0"/>
    <stop edge="543863877#1" parking="true" duration="0"/>
    <stop edge="296185646#0" parking="true" duration="0"/>
    <stop edge="543863877#1" parking="true" duration="0"/>
    <stop edge="296185646#0" parking="true" duration="0"/>
    <stop edge="543863877#1" parking="true" duration="0"/>
    <stop edge="296185646#0" parking="true" duration="0"/>
    <stop edge="543863877#1" parking="true" duration="0"/>
    <stop edge="296185646#0" parking="true" duration="0"/>
    <stop edge="543863877#1" parking="true" duration="0"/>
  </trip>
  <trip id="xiaofang_moped_8_beibi" type="public_moped" depart="128" departLane="best" from="-871617350#0" to="543863877#1">
    <stop edge="296185646#0" parking="true" duration="0"/>
    <stop edge="543863877#1" parking="true" duration="0"/>
    <stop edge="296185646#0" parking="true" duration="0"/>
    <stop edge="543863877#1" parking="true" duration="0"/>
    <stop edge="296185646#0" parking="true" duration="0"/>
    <stop edge="543863877#1" parking="true" duration="0"/>
    <stop edge="296185646#0" parking="true" duration="0"/>
    <stop edge="543863877#1" parking="true" duration="0"/>
    <stop edge="296185646#0" parking="true" duration="0"/>
    <stop edge="543863877#1" parking="true" duration="0"/>
    <stop edge="296185646#0" parking="true" duration="0"/>
    <stop edge="543863877#1" parking="true" duration="0"/>
    <stop edge="296185646#0" parking="true" duration="0"/>
    <stop edge="543863877#1" parking="true" duration="0"/>
    <stop edge="296185646#0" parking="true" duration="0"/>
    <stop edge="543863877#1" parking="true" duration="0"/>
    <stop edge="296185646#0" parking="true" duration="0"/>
    <stop edge="543863877#1" parking="true" duration="0"/>
    <stop edge="296185646#0" parking="true" duration="0"/>
    <stop edge="543863877#1" parking="true" duration="0"/>
    <stop edge="296185646#0" parking="true" duration="0"/>
    <stop edge="543863877#1" parking="true" duration="0"/>
    <stop edge="296185646#0" parking="true" duration="0"/>
    <stop edge="543863877#1" parking="true" duration="0"/>
    <stop edge="296185646#0" parking="true" duration="0"/>
    <stop edge="543863877#1" parking="true" duration="0"/>
    <stop edge="296185646#0" parking="true" duration="0"/>
    <stop edge="543863877#1" parking="true" duration="0"/>
    <stop edge="296185646#0" parking="true" duration="0"/>
    <stop edge="543863877#1" parking="true" duration="0"/>
    <stop edge="296185646#0" parking="true" duration="0"/>
    <stop edge="543863877#1" parking="true" duration="0"/>
    <stop edge="296185646#0" parking="true" duration="0"/>
    <stop edge="543863877#1" parking="true" duration="0"/>
    <stop edge="296185646#0" parking="true" duration="0"/>
    <stop edge="543863877#1" parking="true" duration="0"/>
    <stop edge="296185646#0" parking="true" duration="0"/>
    <stop edge="543863877#1" parking="true" duration="0"/>
    <stop edge="296185646#0" parking="true" duration="0"/>
    <stop edge="543863877#1" parking="true" duration="0"/>
    <stop edge="296185646#0" parking="true" duration="0"/>
    <stop edge="543863877#1" parking="true" duration="0"/>
    <stop edge="296185646#0" parking="true" duration="0"/>
    <stop edge="543863877#1" parking="true" duration="0"/>
    <stop edge="296185646#0" parking="true" duration="0"/>
    <stop edge="543863877#1" parking="true" duration="0"/>
    <stop edge="296185646#0" parking="true" duration="0"/>
    <stop edge="543863877#1" parking="true" duration="0"/>
    <stop edge="296185646#0" parking="true" duration="0"/>
    <stop edge="543863877#1" parking="true" duration="0"/>
    <stop edge="296185646#0" parking="true" duration="0"/>
    <stop edge="543863877#1" parking="true" duration="0"/>
  </trip>
  <trip id="xiaofang_moped_9_beibi" type="public_moped" depart="129" departLane="best" from="-871617350#0" to="543863877#1">
    <stop edge="296185646#0" parking="true" duration="0"/>
    <stop edge="543863877#1" parking="true" duration="0"/>
    <stop edge="296185646#0" parking="true" duration="0"/>
    <stop edge="543863877#1" parking="true" duration="0"/>
    <stop edge="296185646#0" parking="true" duration="0"/>
    <stop edge="543863877#1" parking="true" duration="0"/>
    <stop edge="296185646#0" parking="true" duration="0"/>
    <stop edge="543863877#1" parking="true" duration="0"/>
    <stop edge="296185646#0" parking="true" duration="0"/>
    <stop edge="543863877#1" parking="true" duration="0"/>
    <stop edge="296185646#0" parking="true" duration="0"/>
    <stop edge="543863877#1" parking="true" duration="0"/>
    <stop edge="296185646#0" parking="true" duration="0"/>
    <stop edge="543863877#1" parking="true" duration="0"/>