<?xml version="1.0" ?>
<routes xmlns:xsi="http://www.w3.org/2001/XMLSchema-instance" xsi:noNamespaceSchemaLocation="http://sumo.dlr.de/xsd/routes_file.xsd">
  <vType id="private" vClass="private" maxSpeed="30"/>
  <trip id="dongchong_private_0" type="private" depart="10" departLane="best" from="1163782197#2" to="977360507#0">
    <stop edge="977360507#0" parking="true" duration="0"/>
  </trip>
  <trip id="dongchong_private_1" type="private" depart="11" departLane="best" from="1163782197#2" to="977360507#0">
    <stop edge="977360507#0" parking="true" duration="0"/>
  </trip>
  <trip id="dongchong_private_2" type="private" depart="12" departLane="best" from="1163782197#2" to="977360507#0">
    <stop edge="977360507#0" parking="true" duration="0"/>
  </trip>
  <trip id="dongchong_private_3" type="private" depart="13" departLane="best" from="1163782197#2" to="977360507#0">
    <stop edge="977360507#0" parking="true" duration="0"/>
  </trip>
  <trip id="dongchong_private_4" type="private" depart="14" departLane="best" from="1163782197#2" to="977360507#0">
    <stop edge="977360507#0" parking="true" duration="0"/>
  </trip>
  <trip id="beibi_private_0" type="private" depart="25" departLane="best" from="296185646#0" to="-51691749#4">
    <stop edge="-51691749#4" parking="true" duration="0"/>
  </trip>
  <trip id="beibi_private_1" type="private" depart="26" departLane="best" from="296185646#0" to="-51691749#4">
    <stop edge="-51691749#4" parking="true" duration="0"/>
  </trip>
  <trip id="beibi_private_2" type="private" depart="27" departLane="best" from="296185646#0" to="-51691749#4">
    <stop edge="-51691749#4" parking="true" duration="0"/>
  </trip>
  <trip id="beibi_private_3" type="private" depart="28" departLane="best" from="296185646#0" to="-51691749#4">
    <stop edge="-51691749#4" parking="true" duration="0"/>
  </trip>
  <trip id="beibi_private_4" type="private" depart="29" departLane="best" from="296185646#0" to="-51691749#4">
    <stop edge="-51691749#4" parking="true" duration="0"/>
  </trip>
  <trip id="beigang_private_0" type="private" depart="40" departLane="best" from="1068471749#0" to="715792677">
    <stop edge="715792677" parking="true" duration="0"/>
  </trip>
  <trip id="beigang_private_1" type="private" depart="41" departLane="best" from="1068471749#0" to="715792677">
    <stop edge="715792677" parking="true" duration="0"/>
  </trip>
  <trip id="beigang_private_2" type="private" depart="42" departLane="best" from="1068471749#0" to="715792677">
    <stop edge="715792677" parking="true" duration="0"/>
  </trip>
  <trip id="beigang_private_3" type="private" depart="43" departLane="best" from="1068471749#0" to="715792677">
    <stop edge="715792677" parking="true" duration="0"/>
  </trip>
  <trip id="beigang_private_4" type="private" depart="44" departLane="best" from="1068471749#0" to="715792677">
    <stop edge="715792677" parking="true" duration="0"/>
  </trip>
  <trip id="houshan_private_0" type="private" depart="55" departLane="best" from="1068471755#2" to="1172895350#7">
    <stop edge="1172895350#7" parking="true" duration="0"/>
  </trip>
  <trip id="houshan_private_1" type="private" depart="56" departLane="best" from="1068471755#2" to="1172895350#7">
    <stop edge="1172895350#7" parking="true" duration="0"/>
  </trip>
  <trip id="houshan_private_2" type="private" depart="57" departLane="best" from="1068471755#2" to="1172895350#7">
    <stop edge="1172895350#7" parking="true" duration="0"/>
  </trip>
  <trip id="houshan_private_3" type="private" depart="58" departLane="best" from="1068471755#2" to="1172895350#7">
    <stop edge="1172895350#7" parking="true" duration="0"/>
  </trip>
  <trip id="houshan_private_4" type="private" depart="59" departLane="best" from="1068471755#2" to="1172895350#7">
    <stop edge="1172895350#7" parking="true" duration="0"/>
  </trip>
  <trip id="panqian_private_0" type="private" depart="70" departLane="best" from="1068471755#2" to="543863877#1">
    <stop edge="543863877#1" parking="true" duration="0"/>
  </trip>
  <trip id="panqian_private_1" type="private" depart="71" departLane="best" from="1068471755#2" to="543863877#1">
    <stop edge="543863877#1" parking="true" duration="0"/>
  </trip>
  <trip id="panqian_private_2" type="private" depart="72" departLane="best" from="1068471755#2" to="543863877#1">
    <stop edge="543863877#1" parking="true" duration="0"/>
  </trip>
  <trip id="panqian_private_3" type="private" depart="73" departLane="best" from="1068471755#2" to="543863877#1">
    <stop edge="543863877#1" parking="true" duration="0"/>
  </trip>
  <trip id="panqian_private_4" type="private" depart="74" departLane="best" from="1068471755#2" to="543863877#1">
    <stop edge="543863877#1" parking="true" duration="0"/>
  </trip>
  <trip id="xiahu_private_0" type="private" depart="85" departLane="best" from="229540619#2" to="1172895350#7">
    <stop edge="1172895350#7" parking="true" duration="0"/>
  </trip>
  <trip id="xiahu_private_1" type="private" depart="86" departLane="best" from="229540619#2" to="1172895350#7">
    <stop edge="1172895350#7" parking="true" duration="0"/>
  </trip>
  <trip id="xiahu_private_2" type="private" depart="87" departLane="best" from="229540619#2" to="1172895350#7">
    <stop edge="1172895350#7" parking="true" duration="0"/>
  </trip>
  <trip id="xiahu_private_3" type="private" depart="88" departLane="best" from="229540619#2" to="1172895350#7">
    <stop edge="1172895350#7" parking="true" duration="0"/>
  </trip>
  <trip id="xiahu_private_4" type="private" depart="89" departLane="best" from="229540619#2" to="1172895350#7">
    <stop edge="1172895350#7" parking="true" duration="0"/>
  </trip>
  <trip id="jinxie_private_0" type="private" depart="100" departLane="best" from="1164353535" to="977360507#0">
    <stop edge="977360507#0" parking="true" duration="0"/>
  </trip>
  <trip id="jinxie_private_1" type="private" depart="101" departLane="best" from="1164353535" to="977360507#0">
    <stop edge="977360507#0" parking="true" duration="0"/>
  </trip>
  <trip id="jinxie_private_2" type="private" depart="102" departLane="best" from="1164353535" to="977360507#0">
    <stop edge="977360507#0" parking="true" duration="0"/>
  </trip>
  <trip id="jinxie_private_3" type="private" depart="103" departLane="best" from="1164353535" to="977360507#0">
    <stop edge="977360507#0" parking="true" duration="0"/>
  </trip>
  <trip id="jinxie_private_4" type="private" depart="104" departLane="best" from="1164353535" to="977360507#0">
    <stop edge="977360507#0" parking="true" duration="0"/>
  </trip>
  <trip id="liujin_private_0" type="private" depart="115" departLane="best" from="-474258045" to="-51691749#4">
    <stop edge="-51691749#4" parking="true" duration="0"/>
  </trip>
  <trip id="liujin_private_1" type="private" depart="116" departLane="best" from="-474258045" to="-51691749#4">
    <stop edge="-51691749#4" parking="true" duration="0"/>
  </trip>
  <trip id="liujin_private_2" type="private" depart="117" departLane="best" from="-474258045" to="-51691749#4">
    <stop edge="-51691749#4" parking="true" duration="0"/>
  </trip>
  <trip id="liujin_private_3" type="private" depart="118" departLane="best" from="-474258045" to="-51691749#4">
    <stop edge="-51691749#4" parking="true" duration="0"/>
  </trip>
  <trip id="liujin_private_4" type="private" depart="119" departLane="best" from="-474258045" to="-51691749#4">
    <stop edge="-51691749#4" parking="true" duration="0"/>
  </trip>
</routes>
