<?xml version="1.0" ?>
<routes xmlns:xsi="http://www.w3.org/2001/XMLSchema-instance" xsi:noNamespaceSchemaLocation="http://sumo.dlr.de/xsd/routes_file.xsd">
  <vType id="public_taxi" vClass="taxi" maxSpeed="80"/>
  <trip id="xiaofang_taxi_0_dongchong" type="public_taxi" depart="94" departLane="best" from="-871617350#0" to="543863877#1">
    <stop edge="1163782197#2" parking="true" duration="0"/>
    <stop edge="543863877#1" parking="true" duration="0"/>
  </trip>
  <trip id="xiaofang_taxi_1_dongchong" type="public_taxi" depart="95" departLane="best" from="-871617350#0" to="543863877#1">
    <stop edge="1163782197#2" parking="true" duration="0"/>
    <stop edge="543863877#1" parking="true" duration="0"/>
  </trip>
  <trip id="xiaofang_taxi_2_dongchong" type="public_taxi" depart="96" departLane="best" from="-871617350#0" to="543863877#1">
    <stop edge="1163782197#2" parking="true" duration="0"/>
    <stop edge="543863877#1" parking="true" duration="0"/>
  </trip>
  <trip id="xiaofang_taxi_3_dongchong" type="public_taxi" depart="97" departLane="best" from="-871617350#0" to="543863877#1">
    <stop edge="1163782197#2" parking="true" duration="0"/>
    <stop edge="543863877#1" parking="true" duration="0"/>
  </trip>
  <trip id="xiaofang_taxi_4_dongchong" type="public_taxi" depart="98" departLane="best" from="-871617350#0" to="543863877#1">
    <stop edge="1163782197#2" parking="true" duration="0"/>
    <stop edge="543863877#1" parking="true" duration="0"/>
  </trip>
  <trip id="xiaofang_taxi_5_dongchong" type="public_taxi" depart="99" departLane="best" from="-871617350#0" to="543863877#1">
    <stop edge="1163782197#2" parking="true" duration="0"/>
    <stop edge="543863877#1" parking="true" duration="0"/>
  </trip>
  <trip id="dianchang_taxi_0_dongchong" type="public_taxi" depart="100" departLane="best" from="-978658158#4" to="-51691749#4">
    <stop edge="1163782197#2" parking="true" duration="0"/>
    <stop edge="-51691749#4" parking="true" duration="0"/>
  </trip>
  <trip id="dianchang_taxi_1_dongchong" type="public_taxi" depart="101" departLane="best" from="-978658158#4" to="-51691749#4">
    <stop edge="1163782197#2" parking="true" duration="0"/>
    <stop edge="-51691749#4" parking="true" duration="0"/>
  </trip>
  <trip id="dianchang_taxi_2_dongchong" type="public_taxi" depart="102" departLane="best" from="-978658158#4" to="-51691749#4">
    <stop edge="1163782197#2" parking="true" duration="0"/>
    <stop edge="-51691749#4" parking="true" duration="0"/>
  </trip>
  <trip id="dianchang_taxi_3_dongchong" type="public_taxi" depart="103" departLane="best" from="-978658158#4" to="-51691749#4">
    <stop edge="1163782197#2" parking="true" duration="0"/>
    <stop edge="-51691749#4" parking="true" duration="0"/>
  </trip>
  <trip id="dianchang_taxi_4_dongchong" type="public_taxi" depart="104" departLane="best" from="-978658158#4" to="-51691749#4">
    <stop edge="1163782197#2" parking="true" duration="0"/>
    <stop edge="-51691749#4" parking="true" duration="0"/>
  </trip>
  <trip id="dianchang_taxi_5_dongchong" type="public_taxi" depart="105" departLane="best" from="-978658158#4" to="-51691749#4">
    <stop edge="1163782197#2" parking="true" duration="0"/>
    <stop edge="-51691749#4" parking="true" duration="0"/>
  </trip>
  <trip id="dianchang2_taxi_0_dongchong" type="public_taxi" depart="106" departLane="best" from="1163782197#2" to="543863877#1">
    <stop edge="1163782197#2" parking="true" duration="0"/>
    <stop edge="543863877#1" parking="true" duration="0"/>
  </trip>
  <trip id="dianchang2_taxi_1_dongchong" type="public_taxi" depart="107" departLane="best" from="1163782197#2" to="543863877#1">
    <stop edge="1163782197#2" parking="true" duration="0"/>
    <stop edge="543863877#1" parking="true" duration="0"/>
  </trip>
  <trip id="dianchang2_taxi_2_dongchong" type="public_taxi" depart="108" departLane="best" from="1163782197#2" to="543863877#1">
    <stop edge="1163782197#2" parking="true" duration="0"/>
    <stop edge="543863877#1" parking="true" duration="0"/>
  </trip>
  <trip id="dianchang2_taxi_3_dongchong" type="public_taxi" depart="109" departLane="best" from="1163782197#2" to="543863877#1">
    <stop edge="1163782197#2" parking="true" duration="0"/>
    <stop edge="543863877#1" parking="true" duration="0"/>
  </trip>
  <trip id="dianchang2_taxi_4_dongchong" type="public_taxi" depart="110" departLane="best" from="1163782197#2" to="543863877#1">
    <stop edge="1163782197#2" parking="true" duration="0"/>
    <stop edge="543863877#1" parking="true" duration="0"/>
  </trip>
  <trip id="dianchang2_taxi_5_dongchong" type="public_taxi" depart="111" departLane="best" from="1163782197#2" to="543863877#1">
    <stop edge="1163782197#2" parking="true" duration="0"/>
    <stop edge="543863877#1" parking="true" duration="0"/>
  </trip>
  <trip id="dianchang2_taxi_0_beibi" type="public_taxi" depart="112" departLane="best" from="1163782197#2" to="543863877#1">
    <stop edge="296185646#0" parking="true" duration="0"/>
    <stop edge="543863877#1" parking="true" duration="0"/>
  </trip>
  <trip id="dianchang2_taxi_1_beibi" type="public_taxi" depart="113" departLane="best" from="1163782197#2" to="543863877#1">
    <stop edge="296185646#0" parking="true" duration="0"/>
    <stop edge="543863877#1" parking="true" duration="0"/>
  </trip>
  <trip id="dianchang2_taxi_2_beibi" type="public_taxi" depart="114" departLane="best" from="1163782197#2" to="543863877#1">
    <stop edge="296185646#0" parking="true" duration="0"/>
    <stop edge="543863877#1" parking="true" duration="0"/>
  </trip>
  <trip id="dianchang2_taxi_3_beibi" type="public_taxi" depart="115" departLane="best" from="1163782197#2" to="543863877#1">
    <stop edge="296185646#0" parking="true" duration="0"/>
    <stop edge="543863877#1" parking="true" duration="0"/>
  </trip>
  <trip id="dianchang2_taxi_4_beibi" type="public_taxi" depart="116" departLane="best" from="1163782197#2" to="543863877#1">
    <stop edge="296185646#0" parking="true" duration="0"/>
    <stop edge="543863877#1" parking="true" duration="0"/>
  </trip>
  <trip id="dianchang2_taxi_5_beibi" type="public_taxi" depart="117" departLane="best" from="1163782197#2" to="543863877#1">
    <stop edge="296185646#0" parking="true" duration="0"/>
    <stop edge="543863877#1" parking="true" duration="0"/>
  </trip>
  <trip id="dianchang2_taxi_6_beibi" type="public_taxi" depart="118" departLane="best" from="1163782197#2" to="543863877#1">
    <stop edge="296185646#0" parking="true" duration="0"/>
    <stop edge="543863877#1" parking="true" duration="0"/>
  </trip>
  <trip id="dianchang2_taxi_7_beibi" type="public_taxi" depart="119" departLane="best" from="1163782197#2" to="543863877#1">
    <stop edge="296185646#0" parking="true" duration="0"/>
    <stop edge="543863877#1" parking="true" duration="0"/>
  </trip>
</routes>
