<?xml version="1.0" ?>
<routes xmlns:xsi="http://www.w3.org/2001/XMLSchema-instance" xsi:noNamespaceSchemaLocation="http://sumo.dlr.de/xsd/routes_file.xsd">
  <vType id="public_taxi" vClass="taxi" maxSpeed="80"/>
  <trip id="xiaofang_taxi_0_dongchong" type="public_taxi" depart="44" departLane="best" from="-871617350#0" to="543863877#1">
    <stop edge="1163782197#2" parking="true" duration="0"/>
    <stop edge="543863877#1" parking="true" duration="0"/>
    <stop edge="1163782197#2" parking="true" duration="0"/>
    <stop edge="543863877#1" parking="true" duration="0"/>
    <stop edge="1163782197#2" parking="true" duration="0"/>
    <stop edge="543863877#1" parking="true" duration="0"/>
    <stop edge="1163782197#2" parking="true" duration="0"/>
    <stop edge="543863877#1" parking="true" duration="0"/>
    <stop edge="1163782197#2" parking="true" duration="0"/>
    <stop edge="543863877#1" parking="true" duration="0"/>
    <stop edge="1163782197#2" parking="true" duration="0"/>
    <stop edge="543863877#1" parking="true" duration="0"/>
    <stop edge="1163782197#2" parking="true" duration="0"/>
    <stop edge="543863877#1" parking="true" duration="0"/>
    <stop edge="1163782197#2" parking="true" duration="0"/>
    <stop edge="543863877#1" parking="true" duration="0"/>
    <stop edge="1163782197#2" parking="true" duration="0"/>
    <stop edge="543863877#1" parking="true" duration="0"/>
    <stop edge="1163782197#2" parking="true" duration="0"/>
    <stop edge="543863877#1" parking="true" duration="0"/>
    <stop edge="1163782197#2" parking="true" duration="0"/>
    <stop edge="543863877#1" parking="true" duration="0"/>
  </trip>
  <trip id="xiaofang_taxi_1_dongchong" type="public_taxi" depart="45" departLane="best" from="-871617350#0" to="543863877#1">
    <stop edge="1163782197#2" parking="true" duration="0"/>
    <stop edge="543863877#1" parking="true" duration="0"/>
    <stop edge="1163782197#2" parking="true" duration="0"/>
    <stop edge="543863877#1" parking="true" duration="0"/>
    <stop edge="1163782197#2" parking="true" duration="0"/>
    <stop edge="543863877#1" parking="true" duration="0"/>
    <stop edge="1163782197#2" parking="true" duration="0"/>
    <stop edge="543863877#1" parking="true" duration="0"/>
    <stop edge="1163782197#2" parking="true" duration="0"/>
    <stop edge="543863877#1" parking="true" duration="0"/>
    <stop edge="1163782197#2" parking="true" duration="0"/>
    <stop edge="543863877#1" parking="true" duration="0"/>
    <stop edge="1163782197#2" parking="true" duration="0"/>
    <stop edge="543863877#1" parking="true" duration="0"/>
    <stop edge="1163782197#2" parking="true" duration="0"/>
    <stop edge="543863877#1" parking="true" duration="0"/>
    <stop edge="1163782197#2" parking="true" duration="0"/>
    <stop edge="543863877#1" parking="true" duration="0"/>
    <stop edge="1163782197#2" parking="true" duration="0"/>
    <stop edge="543863877#1" parking="true" duration="0"/>
    <stop edge="1163782197#2" parking="true" duration="0"/>
    <stop edge="543863877#1" parking="true" duration="0"/>
  </trip>
  <trip id="xiaofang_taxi_2_dongchong" type="public_taxi" depart="46" departLane="best" from="-871617350#0" to="543863877#1">
    <stop edge="1163782197#2" parking="true" duration="0"/>
    <stop edge="543863877#1" parking="true" duration="0"/>
    <stop edge="1163782197#2" parking="true" duration="0"/>
    <stop edge="543863877#1" parking="true" duration="0"/>
    <stop edge="1163782197#2" parking="true" duration="0"/>
    <stop edge="543863877#1" parking="true" duration="0"/>
    <stop edge="1163782197#2" parking="true" duration="0"/>
    <stop edge="543863877#1" parking="true" duration="0"/>
    <stop edge="1163782197#2" parking="true" duration="0"/>
    <stop edge="543863877#1" parking="true" duration="0"/>
    <stop edge="1163782197#2" parking="true" duration="0"/>
    <stop edge="543863877#1" parking="true" duration="0"/>
    <stop edge="1163782197#2" parking="true" duration="0"/>
    <stop edge="543863877#1" parking="true" duration="0"/>
    <stop edge="1163782197#2" parking="true" duration="0"/>
    <stop edge="543863877#1" parking="true" duration="0"/>
    <stop edge="1163782197#2" parking="true" duration="0"/>
    <stop edge="543863877#1" parking="true" duration="0"/>
    <stop edge="1163782197#2" parking="true" duration="0"/>
    <stop edge="543863877#1" parking="true" duration="0"/>
    <stop edge="1163782197#2" parking="true" duration="0"/>
    <stop edge="543863877#1" parking="true" duration="0"/>
  </trip>
  <trip id="xiaofang_taxi_3_dongchong" type="public_taxi" depart="47" departLane="best" from="-871617350#0" to="543863877#1">
    <stop edge="1163782197#2" parking="true" duration="0"/>
    <stop edge="543863877#1" parking="true" duration="0"/>
    <stop edge="1163782197#2" parking="true" duration="0"/>
    <stop edge="543863877#1" parking="true" duration="0"/>
    <stop edge="1163782197#2" parking="true" duration="0"/>
    <stop edge="543863877#1" parking="true" duration="0"/>
    <stop edge="1163782197#2" parking="true" duration="0"/>
    <stop edge="543863877#1" parking="true" duration="0"/>
    <stop edge="1163782197#2" parking="true" duration="0"/>
    <stop edge="543863877#1" parking="true" duration="0"/>
    <stop edge="1163782197#2" parking="true" duration="0"/>
    <stop edge="543863877#1" parking="true" duration="0"/>
    <stop edge="1163782197#2" parking="true" duration="0"/>
    <stop edge="543863877#1" parking="true" duration="0"/>
    <stop edge="1163782197#2" parking="true" duration="0"/>
    <stop edge="543863877#1" parking="true" duration="0"/>
    <stop edge="1163782197#2" parking="true" duration="0"/>
    <stop edge="543863877#1" parking="true" duration="0"/>
    <stop edge="1163782197#2" parking="true" duration="0"/>
    <stop edge="543863877#1" parking="true" duration="0"/>
    <stop edge="1163782197#2" parking="true" duration="0"/>
    <stop edge="543863877#1" parking="true" duration="0"/>
  </trip>
  <trip id="xiaofang_taxi_4_dongchong" type="public_taxi" depart="48" departLane="best" from="-871617350#0" to="543863877#1">
    <stop edge="1163782197#2" parking="true" duration="0"/>
    <stop edge="543863877#1" parking="true" duration="0"/>
    <stop edge="1163782197#2" parking="true" duration="0"/>
    <stop edge="543863877#1" parking="true" duration="0"/>
    <stop edge="1163782197#2" parking="true" duration="0"/>
    <stop edge="543863877#1" parking="true" duration="0"/>
    <stop edge="1163782197#2" parking="true" duration="0"/>
    <stop edge="543863877#1" parking="true" duration="0"/>
    <stop edge="1163782197#2" parking="true" duration="0"/>
    <stop edge="543863877#1" parking="true" duration="0"/>
    <stop edge="1163782197#2" parking="true" duration="0"/>
    <stop edge="543863877#1" parking="true" duration="0"/>
    <stop edge="1163782197#2" parking="true" duration="0"/>
    <stop edge="543863877#1" parking="true" duration="0"/>
    <stop edge="1163782197#2" parking="true" duration="0"/>
    <stop edge="543863877#1" parking="true" duration="0"/>
    <stop edge="1163782197#2" parking="true" duration="0"/>
    <stop edge="543863877#1" parking="true" duration="0"/>
    <stop edge="1163782197#2" parking="true" duration="0"/>
    <stop edge="543863877#1" parking="true" duration="0"/>
    <stop edge="1163782197#2" parking="true" duration="0"/>
    <stop edge="543863877#1" parking="true" duration="0"/>
  </trip>
  <trip id="xiaofang_taxi_5_dongchong" type="public_taxi" depart="49" departLane="best" from="-871617350#0" to="543863877#1">
    <stop edge="1163782197#2" parking="true" duration="0"/>
    <stop edge="543863877#1" parking="true" duration="0"/>
    <stop edge="1163782197#2" parking="true" duration="0"/>
    <stop edge="543863877#1" parking="true" duration="0"/>
    <stop edge="1163782197#2" parking="true" duration="0"/>
    <stop edge="543863877#1" parking="true" duration="0"/>
    <stop edge="1163782197#2" parking="true" duration="0"/>
    <stop edge="543863877#1" parking="true" duration="0"/>
    <stop edge="1163782197#2" parking="true" duration="0"/>
    <stop edge="543863877#1" parking="true" duration="0"/>
    <stop edge="1163782197#2" parking="true" duration="0"/>
    <stop edge="543863877#1" parking="true" duration="0"/>
    <stop edge="1163782197#2" parking="true" duration="0"/>
    <stop edge="543863877#1" parking="true" duration="0"/>
    <stop edge="1163782197#2" parking="true" duration="0"/>
    <stop edge="543863877#1" parking="true" duration="0"/>
    <stop edge="1163782197#2" parking="true" duration="0"/>
    <stop edge="543863877#1" parking="true" duration="0"/>
    <stop edge="1163782197#2" parking="true" duration="0"/>
    <stop edge="543863877#1" parking="true" duration="0"/>
    <stop edge="1163782197#2" parking="true" duration="0"/>
    <stop edge="543863877#1" parking="true" duration="0"/>
  </trip>
  <trip id="dianchang_taxi_0_dongchong" type="public_taxi" depart="50" departLane="best" from="-978658158#4" to="-51691749#4">
    <stop edge="1163782197#2" parking="true" duration="0"/>
    <stop edge="-51691749#4" parking="true" duration="0"/>
    <stop edge="1163782197#2" parking="true" duration="0"/>
    <stop edge="-51691749#4" parking="true" duration="0"/>
    <stop edge="1163782197#2" parking="true" duration="0"/>
    <stop edge="-51691749#4" parking="true" duration="0"/>
    <stop edge="1163782197#2" parking="true" duration="0"/>
    <stop edge="-51691749#4" parking="true" duration="0"/>
    <stop edge="1163782197#2" parking="true" duration="0"/>
    <stop edge="-51691749#4" parking="true" duration="0"/>
    <stop edge="1163782197#2" parking="true" duration="0"/>
    <stop edge="-51691749#4" parking="true" duration="0"/>
    <stop edge="1163782197#2" parking="true" duration="0"/>
    <stop edge="-51691749#4" parking="true" duration="0"/>
    <stop edge="1163782197#2" parking="true" duration="0"/>
    <stop edge="-51691749#4" parking="true" duration="0"/>
    <stop edge="1163782197#2" parking="true" duration="0"/>
    <stop edge="-51691749#4" parking="true" duration="0"/>
    <stop edge="1163782197#2" parking="true" duration="0"/>
    <stop edge="-51691749#4" parking="true" duration="0"/>
    <stop edge="1163782197#2" parking="true" duration="0"/>
    <stop edge="-51691749#4" parking="true" duration="0"/>
  </trip>
  <trip id="dianchang_taxi_1_dongchong" type="public_taxi" depart="51" departLane="best" from="-978658158#4" to="-51691749#4">
    <stop edge="1163782197#2" parking="true" duration="0"/>
    <stop edge="-51691749#4" parking="true" duration="0"/>
    <stop edge="1163782197#2" parking="true" duration="0"/>
    <stop edge="-51691749#4" parking="true" duration="0"/>
    <stop edge="1163782197#2" parking="true" duration="0"/>
    <stop edge="-51691749#4" parking="true" duration="0"/>
    <stop edge="1163782197#2" parking="true" duration="0"/>
    <stop edge="-51691749#4" parking="true" duration="0"/>
    <stop edge="1163782197#2" parking="true" duration="0"/>
    <stop edge="-51691749#4" parking="true" duration="0"/>
    <stop edge="1163782197#2" parking="true" duration="0"/>
    <stop edge="-51691749#4" parking="true" duration="0"/>
    <stop edge="1163782197#2" parking="true" duration="0"/>
    <stop edge="-51691749#4" parking="true" duration="0"/>
    <stop edge="1163782197#2" parking="true" duration="0"/>
    <stop edge="-51691749#4" parking="true" duration="0"/>
    <stop edge="1163782197#2" parking="true" duration="0"/>
    <stop edge="-51691749#4" parking="true" duration="0"/>
    <stop edge="1163782197#2" parking="true" duration="0"/>
    <stop edge="-51691749#4" parking="true" duration="0"/>
    <stop edge="1163782197#2" parking="true" duration="0"/>
    <stop edge="-51691749#4" parking="true" duration="0"/>
  </trip>
  <trip id="dianchang_taxi_2_dongchong" type="public_taxi" depart="52" departLane="best" from="-978658158#4" to="-51691749#4">
    <stop edge="1163782197#2" parking="true" duration="0"/>
    <stop edge="-51691749#4" parking="true" duration="0"/>
    <stop edge="1163782197#2" parking="true" duration="0"/>
    <stop edge="-51691749#4" parking="true" duration="0"/>
    <stop edge="1163782197#2" parking="true" duration="0"/>
    <stop edge="-51691749#4" parking="true" duration="0"/>
    <stop edge="1163782197#2" parking="true" duration="0"/>
    <stop edge="-51691749#4" parking="true" duration="0"/>
    <stop edge="1163782197#2" parking="true" duration="0"/>
    <stop edge="-51691749#4" parking="true" duration="0"/>
    <stop edge="1163782197#2" parking="true" duration="0"/>
    <stop edge="-51691749#4" parking="true" duration="0"/>
    <stop edge="1163782197#2" parking="true" duration="0"/>
    <stop edge="-51691749#4" parking="true" duration="0"/>
    <stop edge="1163782197#2" parking="true" duration="0"/>
    <stop edge="-51691749#4" parking="true" duration="0"/>
    <stop edge="1163782197#2" parking="true" duration="0"/>
    <stop edge="-51691749#4" parking="true" duration="0"/>
    <stop edge="1163782197#2" parking="true" duration="0"/>
    <stop edge="-51691749#4" parking="true" duration="0"/>
    <stop edge="1163782197#2" parking="true" duration="0"/>
    <stop edge="-51691749#4" parking="true" duration="0"/>
  </trip>
  <trip id="dianchang_taxi_3_dongchong" type="public_taxi" depart="53" departLane="best" from="-978658158#4" to="-51691749#4">
    <stop edge="1163782197#2" parking="true" duration="0"/>
    <stop edge="-51691749#4" parking="true" duration="0"/>
    <stop edge="1163782197#2" parking="true" duration="0"/>
    <stop edge="-51691749#4" parking="true" duration="0"/>
    <stop edge="1163782197#2" parking="true" duration="0"/>
    <stop edge="-51691749#4" parking="true" duration="0"/>
    <stop edge="1163782197#2" parking="true" duration="0"/>
    <stop edge="-51691749#4" parking="true" duration="0"/>
    <stop edge="1163782197#2" parking="true" duration="0"/>
    <stop edge="-51691749#4" parking="true" duration="0"/>
    <stop edge="1163782197#2" parking="true" duration="0"/>
    <stop edge="-51691749#4" parking="true" duration="0"/>
    <stop edge="1163782197#2" parking="true" duration="0"/>
    <stop edge="-51691749#4" parking="true" duration="0"/>
    <stop edge="1163782197#2" parking="true" duration="0"/>
    <stop edge="-51691749#4" parking="true" duration="0"/>
    <stop edge="1163782197#2" parking="true" duration="0"/>
    <stop edge="-51691749#4" parking="true" duration="0"/>
    <stop edge="1163782197#2" parking="true" duration="0"/>
    <stop edge="-51691749#4" parking="true" duration="0"/>
    <stop edge="1163782197#2" parking="true" duration="0"/>
    <stop edge="-51691749#4" parking="true" duration="0"/>
  </trip>
  <trip id="dianchang_taxi_4_dongchong" type="public_taxi" depart="54" departLane="best" from="-978658158#4" to="-51691749#4">
    <stop edge="1163782197#2" parking="true" duration="0"/>
    <stop edge="-51691749#4" parking="true" duration="0"/>
    <stop edge="1163782197#2" parking="true" duration="0"/>
    <stop edge="-51691749#4" parking="true" duration="0"/>
    <stop edge="1163782197#2" parking="true" duration="0"/>
    <stop edge="-51691749#4" parking="true" duration="0"/>
    <stop edge="1163782197#2" parking="true" duration="0"/>
    <stop edge="-51691749#4" parking="true" duration="0"/>
    <stop edge="1163782197#2" parking="true" duration="0"/>
    <stop edge="-51691749#4" parking="true" duration="0"/>
    <stop edge="1163782197#2" parking="true" duration="0"/>
    <stop edge="-51691749#4" parking="true" duration="0"/>
    <stop edge="1163782197#2" parking="true" duration="0"/>
    <stop edge="-51691749#4" parking="true" duration="0"/>
    <stop edge="1163782197#2" parking="true" duration="0"/>
    <stop edge="-51691749#4" parking="true" duration="0"/>
    <stop edge="1163782197#2" parking="true" duration="0"/>
    <stop edge="-51691749#4" parking="true" duration="0"/>
    <stop edge="1163782197#2" parking="true" duration="0"/>
    <stop edge="-51691749#4" parking="true" duration="0"/>
    <stop edge="1163782197#2" parking="true" duration="0"/>
    <stop edge="-51691749#4" parking="true" duration="0"/>
  </trip>
  <trip id="dianchang_taxi_5_dongchong" type="public_taxi" depart="55" departLane="best" from="-978658158#4" to="-51691749#4">
    <stop edge="1163782197#2" parking="true" duration="0"/>
    <stop edge="-51691749#4" parking="true" duration="0"/>
    <stop edge="1163782197#2" parking="true" duration="0"/>
    <stop edge="-51691749#4" parking="true" duration="0"/>
    <stop edge="1163782197#2" parking="true" duration="0"/>
    <stop edge="-51691749#4" parking="true" duration="0"/>
    <stop edge="1163782197#2" parking="true" duration="0"/>
    <stop edge="-51691749#4" parking="true" duration="0"/>
    <stop edge="1163782197#2" parking="true" duration="0"/>
    <stop edge="-51691749#4" parking="true" duration="0"/>
    <stop edge="1163782197#2" parking="true" duration="0"/>
    <stop edge="-51691749#4" parking="true" duration="0"/>
    <stop edge="1163782197#2" parking="true" duration="0"/>
    <stop edge="-51691749#4" parking="true" duration="0"/>
    <stop edge="1163782197#2" parking="true" duration="0"/>
    <stop edge="-51691749#4" parking="true" duration="0"/>
    <stop edge="1163782197#2" parking="true" duration="0"/>
    <stop edge="-51691749#4" parking="true" duration="0"/>
    <stop edge="1163782197#2" parking="true" duration="0"/>
    <stop edge="-51691749#4" parking="true" duration="0"/>
    <stop edge="1163782197#2" parking="true" duration="0"/>
    <stop edge="-51691749#4" parking="true" duration="0"/>
  </trip>
</routes>
