<?xml version='1.0' encoding='utf-8'?>
<routes xmlns:xsi="http://www.w3.org/2001/XMLSchema-instance" xsi:noNamespaceSchemaLocation="http://sumo.dlr.de/xsd/routes_file.xsd">
    <vType id="motorcycle" vClass="motorcycle" />
<trip id="dongchong_motorcycle0" type="motorcycle" depart="0.00" departLane="best" from="1163782197#2" to="-51691749#4"><stop edge="-51691749#4" parking="true" duration="10.00" /><stop edge="1163782197#2" parking="true" duration="10.00" /><stop edge="-51691749#4" parking="true" duration="10.00" /><stop edge="1163782197#2" parking="true" duration="10.00" /><stop edge="-51691749#4" parking="true" duration="10.00" /><stop edge="1163782197#2" parking="true" duration="10.00" /><stop edge="-51691749#4" parking="true" duration="10.00" /></trip><trip id="dongchong_motorcycle1" type="motorcycle" depart="0.00" departLane="best" from="1163782197#2" to="-51691749#4"><stop edge="-51691749#4" parking="true" duration="10.00" /><stop edge="1163782197#2" parking="true" duration="10.00" /><stop edge="-51691749#4" parking="true" duration="10.00" /><stop edge="1163782197#2" parking="true" duration="10.00" /><stop edge="-51691749#4" parking="true" duration="10.00" /><stop edge="1163782197#2" parking="true" duration="10.00" /><stop edge="-51691749#4" parking="true" duration="10.00" /></trip><trip id="dongchong_motorcycle2" type="motorcycle" depart="0.00" departLane="best" from="1163782197#2" to="-51691749#4"><stop edge="-51691749#4" parking="true" duration="10.00" /><stop edge="1163782197#2" parking="true" duration="10.00" /><stop edge="-51691749#4" parking="true" duration="10.00" /><stop edge="1163782197#2" parking="true" duration="10.00" /><stop edge="-51691749#4" parking="true" duration="10.00" /><stop edge="1163782197#2" parking="true" duration="10.00" /><stop edge="-51691749#4" parking="true" duration="10.00" /></trip><trip id="dongchong_motorcycle3" type="motorcycle" depart="0.00" departLane="best" from="1163782197#2" to="-51691749#4"><stop edge="-51691749#4" parking="true" duration="10.00" /><stop edge="1163782197#2" parking="true" duration="10.00" /><stop edge="-51691749#4" parking="true" duration="10.00" /><stop edge="1163782197#2" parking="true" duration="10.00" /><stop edge="-51691749#4" parking="true" duration="10.00" /><stop edge="1163782197#2" parking="true" duration="10.00" /><stop edge="-51691749#4" parking="true" duration="10.00" /></trip><trip id="dongchong_motorcycle4" type="motorcycle" depart="0.00" departLane="best" from="1163782197#2" to="-51691749#4"><stop edge="-51691749#4" parking="true" duration="10.00" /><stop edge="1163782197#2" parking="true" duration="10.00" /><stop edge="-51691749#4" parking="true" duration="10.00" /><stop edge="1163782197#2" parking="true" duration="10.00" /><stop edge="-51691749#4" parking="true" duration="10.00" /><stop edge="1163782197#2" parking="true" duration="10.00" /><stop edge="-51691749#4" parking="true" duration="10.00" /></trip><trip id="dongchong_motorcycle5" type="motorcycle" depart="0.00" departLane="best" from="1163782197#2" to="-51691749#4"><stop edge="-51691749#4" parking="true" duration="10.00" /><stop edge="1163782197#2" parking="true" duration="10.00" /><stop edge="-51691749#4" parking="true" duration="10.00" /><stop edge="1163782197#2" parking="true" duration="10.00" /><stop edge="-51691749#4" parking="true" duration="10.00" /><stop edge="1163782197#2" parking="true" duration="10.00" /><stop edge="-51691749#4" parking="true" duration="10.00" /></trip><trip id="dongchong_motorcycle6" type="motorcycle" depart="0.00" departLane="best" from="1163782197#2" to="-51691749#4"><stop edge="-51691749#4" parking="true" duration="10.00" /><stop edge="1163782197#2" parking="true" duration="10.00" /><stop edge="-51691749#4" parking="true" duration="10.00" /><stop edge="1163782197#2" parking="true" duration="10.00" /><stop edge="-51691749#4" parking="true" duration="10.00" /><stop edge="1163782197#2" parking="true" duration="10.00" /><stop edge="-51691749#4" parking="true" duration="10.00" /></trip><trip id="dongchong_motorcycle7" type="motorcycle" depart="0.00" departLane="best" from="1163782197#2" to="-51691749#4"><stop edge="-51691749#4" parking="true" duration="10.00" /><stop edge="1163782197#2" parking="true" duration="10.00" /><stop edge="-51691749#4" parking="true" duration="10.00" /><stop edge="1163782197#2" parking="true" duration="10.00" /><stop edge="-51691749#4" parking="true" duration="10.00" /><stop edge="1163782197#2" parking="true" duration="10.00" /><stop edge="-51691749#4" parking="true" duration="10.00" /></trip><trip id="dongchong_motorcycle8" type="motorcycle" depart="0.00" departLane="best" from="1163782197#2" to="-51691749#4"><stop edge="-51691749#4" parking="true" duration="10.00" /><stop edge="1163782197#2" parking="true" duration="10.00" /><stop edge="-51691749#4" parking="true" duration="10.00" /><stop edge="1163782197#2" parking="true" duration="10.00" /><stop edge="-51691749#4" parking="true" duration="10.00" /><stop edge="1163782197#2" parking="true" duration="10.00" /><stop edge="-51691749#4" parking="true" duration="10.00" /></trip><trip id="dongchong_motorcycle9" type="motorcycle" depart="0.00" departLane="best" from="1163782197#2" to="-51691749#4"><stop edge="-51691749#4" parking="true" duration="10.00" /><stop edge="1163782197#2" parking="true" duration="10.00" /><stop edge="-51691749#4" parking="true" duration="10.00" /><stop edge="1163782197#2" parking="true" duration="10.00" /><stop edge="-51691749#4" parking="true" duration="10.00" /><stop edge="1163782197#2" parking="true" duration="10.00" /><stop edge="-51691749#4" parking="true" duration="10.00" /></trip><trip id="dongchong_motorcycle10" type="motorcycle" depart="0.00" departLane="best" from="1163782197#2" to="-51691749#4"><stop edge="-51691749#4" parking="true" duration="10.00" /><stop edge="1163782197#2" parking="true" duration="10.00" /><stop edge="-51691749#4" parking="true" duration="10.00" /><stop edge="1163782197#2" parking="true" duration="10.00" /><stop edge="-51691749#4" parking="true" duration="10.00" /><stop edge="1163782197#2" parking="true" duration="10.00" /><stop edge="-51691749#4" parking="true" duration="10.00" /></trip><trip id="dongchong_motorcycle11" type="motorcycle" depart="0.00" departLane="best" from="1163782197#2" to="-51691749#4"><stop edge="-51691749#4" parking="true" duration="10.00" /><stop edge="1163782197#2" parking="true" duration="10.00" /><stop edge="-51691749#4" parking="true" duration="10.00" /><stop edge="1163782197#2" parking="true" duration="10.00" /><stop edge="-51691749#4" parking="true" duration="10.00" /><stop edge="1163782197#2" parking="true" duration="10.00" /><stop edge="-51691749#4" parking="true" duration="10.00" /></trip><trip id="dongchong_motorcycle12" type="motorcycle" depart="0.00" departLane="best" from="1163782197#2" to="-51691749#4"><stop edge="-51691749#4" parking="true" duration="10.00" /><stop edge="1163782197#2" parking="true" duration="10.00" /><stop edge="-51691749#4" parking="true" duration="10.00" /><stop edge="1163782197#2" parking="true" duration="10.00" /><stop edge="-51691749#4" parking="true" duration="10.00" /><stop edge="1163782197#2" parking="true" duration="10.00" /><stop edge="-51691749#4" parking="true" duration="10.00" /></trip><trip id="dongchong_motorcycle13" type="motorcycle" depart="0.00" departLane="best" from="1163782197#2" to="-51691749#4"><stop edge="-51691749#4" parking="true" duration="10.00" /><stop edge="1163782197#2" parking="true" duration="10.00" /><stop edge="-51691749#4" parking="true" duration="10.00" /><stop edge="1163782197#2" parking="true" duration="10.00" /><stop edge="-51691749#4" parking="true" duration="10.00" /><stop edge="1163782197#2" parking="true" duration="10.00" /><stop edge="-51691749#4" parking="true" duration="10.00" /></trip><trip id="dongchong_motorcycle14" type="motorcycle" depart="0.00" departLane="best" from="1163782197#2" to="-51691749#4"><stop edge="-51691749#4" parking="true" duration="10.00" /><stop edge="1163782197#2" parking="true" duration="10.00" /><stop edge="-51691749#4" parking="true" duration="10.00" /><stop edge="1163782197#2" parking="true" duration="10.00" /><stop edge="-51691749#4" parking="true" duration="10.00" /><stop edge="1163782197#2" parking="true" duration="10.00" /><stop edge="-51691749#4" parking="true" duration="10.00" /></trip><trip id="dongchong_motorcycle15" type="motorcycle" depart="0.00" departLane="best" from="1163782197#2" to="-51691749#4"><stop edge="-51691749#4" parking="true" duration="10.00" /><stop edge="1163782197#2" parking="true" duration="10.00" /><stop edge="-51691749#4" parking="true" duration="10.00" /><stop edge="1163782197#2" parking="true" duration="10.00" /><stop edge="-51691749#4" parking="true" duration="10.00" /><stop edge="1163782197#2" parking="true" duration="10.00" /><stop edge="-51691749#4" parking="true" duration="10.00" /></trip><trip id="dongchong_motorcycle16" type="motorcycle" depart="0.00" departLane="best" from="1163782197#2" to="-51691749#4"><stop edge="-51691749#4" parking="true" duration="10.00" /><stop edge="1163782197#2" parking="true" duration="10.00" /><stop edge="-51691749#4" parking="true" duration="10.00" /><stop edge="1163782197#2" parking="true" duration="10.00" /><stop edge="-51691749#4" parking="true" duration="10.00" /><stop edge="1163782197#2" parking="true" duration="10.00" /><stop edge="-51691749#4" parking="true" duration="10.00" /></trip><trip id="dongchong_motorcycle17" type="motorcycle" depart="0.00" departLane="best" from="1163782197#2" to="-51691749#4"><stop edge="-51691749#4" parking="true" duration="10.00" /><stop edge="1163782197#2" parking="true" duration="10.00" /><stop edge="-51691749#4" parking="true" duration="10.00" /><stop edge="1163782197#2" parking="true" duration="10.00" /><stop edge="-51691749#4" parking="true" duration="10.00" /><stop edge="1163782197#2" parking="true" duration="10.00" /><stop edge="-51691749#4" parking="true" duration="10.00" /></trip><trip id="dongchong_motorcycle18" type="motorcycle" depart="0.00" departLane="best" from="1163782197#2" to="-51691749#4"><stop edge="-51691749#4" parking="true" duration="10.00" /><stop edge="1163782197#2" parking="true" duration="10.00" /><stop edge="-51691749#4" parking="true" duration="10.00" /><stop edge="1163782197#2" parking="true" duration="10.00" /><stop edge="-51691749#4" parking="true" duration="10.00" /><stop edge="1163782197#2" parking="true" duration="10.00" /><stop edge="-51691749#4" parking="true" duration="10.00" /></trip><trip id="dongchong_motorcycle19" type="motorcycle" depart="0.00" departLane="best" from="1163782197#2" to="-51691749#4"><stop edge="-51691749#4" parking="true" duration="10.00" /><stop edge="1163782197#2" parking="true" duration="10.00" /><stop edge="-51691749#4" parking="true" duration="10.00" /><stop edge="1163782197#2" parking="true" duration="10.00" /><stop edge="-51691749#4" parking="true" duration="10.00" /><stop edge="1163782197#2" parking="true" duration="10.00" /><stop edge="-51691749#4" parking="true" duration="10.00" /></trip><trip id="dongchong_motorcycle20" type="motorcycle" depart="0.00" departLane="best" from="1163782197#2" to="-51691749#4"><stop edge="-51691749#4" parking="true" duration="10.00" /><stop edge="1163782197#2" parking="true" duration="10.00" /><stop edge="-51691749#4" parking="true" duration="10.00" /><stop edge="1163782197#2" parking="true" duration="10.00" /><stop edge="-51691749#4" parking="true" duration="10.00" /><stop edge="1163782197#2" parking="true" duration="10.00" /><stop edge="-51691749#4" parking="true" duration="10.00" /></trip><trip id="dongchong_motorcycle21" type="motorcycle" depart="0.00" departLane="best" from="1163782197#2" to="-51691749#4"><stop edge="-51691749#4" parking="true" duration="10.00" /><stop edge="1163782197#2" parking="true" duration="10.00" /><stop edge="-51691749#4" parking="true" duration="10.00" /><stop edge="1163782197#2" parking="true" duration="10.00" /><stop edge="-51691749#4" parking="true" duration="10.00" /><stop edge="1163782197#2" parking="true" duration="10.00" /><stop edge="-51691749#4" parking="true" duration="10.00" /></trip><trip id="dongchong_motorcycle22" type="motorcycle" depart="0.00" departLane="best" from="1163782197#2" to="-51691749#4"><stop edge="-51691749#4" parking="true" duration="10.00" /><stop edge="1163782197#2" parking="true" duration="10.00" /><stop edge="-51691749#4" parking="true" duration="10.00" /><stop edge="1163782197#2" parking="true" duration="10.00" /><stop edge="-51691749#4" parking="true" duration="10.00" /><stop edge="1163782197#2" parking="true" duration="10.00" /><stop edge="-51691749#4" parking="true" duration="10.00" /></trip><trip id="dongchong_motorcycle23" type="motorcycle" depart="0.00" departLane="best" from="1163782197#2" to="-51691749#4"><stop edge="-51691749#4" parking="true" duration="10.00" /><stop edge="1163782197#2" parking="true" duration="10.00" /><stop edge="-51691749#4" parking="true" duration="10.00" /><stop edge="1163782197#2" parking="true" duration="10.00" /><stop edge="-51691749#4" parking="true" duration="10.00" /><stop edge="1163782197#2" parking="true" duration="10.00" /><stop edge="-51691749#4" parking="true" duration="10.00" /></trip><trip id="dongchong_motorcycle24" type="motorcycle" depart="0.00" departLane="best" from="1163782197#2" to="-51691749#4"><stop edge="-51691749#4" parking="true" duration="10.00" /><stop edge="1163782197#2" parking="true" duration="10.00" /><stop edge="-51691749#4" parking="true" duration="10.00" /><stop edge="1163782197#2" parking="true" duration="10.00" /><stop edge="-51691749#4" parking="true" duration="10.00" /><stop edge="1163782197#2" parking="true" duration="10.00" /><stop edge="-51691749#4" parking="true" duration="10.00" /></trip><trip id="dongchong_motorcycle25" type="motorcycle" depart="0.00" departLane="best" from="1163782197#2" to="-51691749#4"><stop edge="-51691749#4" parking="true" duration="10.00" /><stop edge="1163782197#2" parking="true" duration="10.00" /><stop edge="-51691749#4" parking="true" duration="10.00" /><stop edge="1163782197#2" parking="true" duration="10.00" /><stop edge="-51691749#4" parking="true" duration="10.00" /><stop edge="1163782197#2" parking="true" duration="10.00" /><stop edge="-51691749#4" parking="true" duration="10.00" /></trip><trip id="dongchong_motorcycle26" type="motorcycle" depart="0.00" departLane="best" from="1163782197#2" to="-51691749#4"><stop edge="-51691749#4" parking="true" duration="10.00" /><stop edge="1163782197#2" parking="true" duration="10.00" /><stop edge="-51691749#4" parking="true" duration="10.00" /><stop edge="1163782197#2" parking="true" duration="10.00" /><stop edge="-51691749#4" parking="true" duration="10.00" /><stop edge="1163782197#2" parking="true" duration="10.00" /><stop edge="-51691749#4" parking="true" duration="10.00" /></trip><trip id="dongchong_motorcycle27" type="motorcycle" depart="0.00" departLane="best" from="1163782197#2" to="-51691749#4"><stop edge="-51691749#4" parking="true" duration="10.00" /><stop edge="1163782197#2" parking="true" duration="10.00" /><stop edge="-51691749#4" parking="true" duration="10.00" /><stop edge="1163782197#2" parking="true" duration="10.00" /><stop edge="-51691749#4" parking="true" duration="10.00" /><stop edge="1163782197#2" parking="true" duration="10.00" /><stop edge="-51691749#4" parking="true" duration="10.00" /></trip><trip id="dongchong_motorcycle28" type="motorcycle" depart="0.00" departLane="best" from="1163782197#2" to="-51691749#4"><stop edge="-51691749#4" parking="true" duration="10.00" /><stop edge="1163782197#2" parking="true" duration="10.00" /><stop edge="-51691749#4" parking="true" duration="10.00" /><stop edge="1163782197#2" parking="true" duration="10.00" /><stop edge="-51691749#4" parking="true" duration="10.00" /><stop edge="1163782197#2" parking="true" duration="10.00" /><stop edge="-51691749#4" parking="true" duration="10.00" /></trip><trip id="dongchong_motorcycle29" type="motorcycle" depart="0.00" departLane="best" from="1163782197#2" to="-51691749#4"><stop edge="-51691749#4" parking="true" duration="10.00" /><stop edge="1163782197#2" parking="true" duration="10.00" /><stop edge="-51691749#4" parking="true" duration="10.00" /><stop edge="1163782197#2" parking="true" duration="10.00" /><stop edge="-51691749#4" parking="true" duration="10.00" /><stop edge="1163782197#2" parking="true" duration="10.00" /><stop edge="-51691749#4" parking="true" duration="10.00" /></trip><trip id="dongchong_motorcycle30" type="motorcycle" depart="0.00" departLane="best" from="1163782197#2" to="-51691749#4"><stop edge="-51691749#4" parking="true" duration="10.00" /><stop edge="1163782197#2" parking="true" duration="10.00" /><stop edge="-51691749#4" parking="true" duration="10.00" /><stop edge="1163782197#2" parking="true" duration="10.00" /><stop edge="-51691749#4" parking="true" duration="10.00" /><stop edge="1163782197#2" parking="true" duration="10.00" /><stop edge="-51691749#4" parking="true" duration="10.00" /></trip><trip id="dongchong_motorcycle31" type="motorcycle" depart="0.00" departLane="best" from="1163782197#2" to="-51691749#4"><stop edge="-51691749#4" parking="true" duration="10.00" /><stop edge="1163782197#2" parking="true" duration="10.00" /><stop edge="-51691749#4" parking="true" duration="10.00" /><stop edge="1163782197#2" parking="true" duration="10.00" /><stop edge="-51691749#4" parking="true" duration="10.00" /><stop edge="1163782197#2" parking="true" duration="10.00" /><stop edge="-51691749#4" parking="true" duration="10.00" /></trip><trip id="dongchong_motorcycle32" type="motorcycle" depart="0.00" departLane="best" from="1163782197#2" to="-51691749#4"><stop edge="-51691749#4" parking="true" duration="10.00" /><stop edge="1163782197#2" parking="true" duration="10.00" /><stop edge="-51691749#4" parking="true" duration="10.00" /><stop edge="1163782197#2" parking="true" duration="10.00" /><stop edge="-51691749#4" parking="true" duration="10.00" /><stop edge="1163782197#2" parking="true" duration="10.00" /><stop edge="-51691749#4" parking="true" duration="10.00" /></trip><trip id="dongchong_motorcycle33" type="motorcycle" depart="0.00" departLane="best" from="1163782197#2" to="-51691749#4"><stop edge="-51691749#4" parking="true" duration="10.00" /><stop edge="1163782197#2" parking="true" duration="10.00" /><stop edge="-51691749#4" parking="true" duration="10.00" /><stop edge="1163782197#2" parking="true" duration="10.00" /><stop edge="-51691749#4" parking="true" duration="10.00" /><stop edge="1163782197#2" parking="true" duration="10.00" /><stop edge="-51691749#4" parking="true" duration="10.00" /></trip><trip id="dongchong_motorcycle34" type="motorcycle" depart="0.00" departLane="best" from="1163782197#2" to="-51691749#4"><stop edge="-51691749#4" parking="true" duration="10.00" /><stop edge="1163782197#2" parking="true" duration="10.00" /><stop edge="-51691749#4" parking="true" duration="10.00" /><stop edge="1163782197#2" parking="true" duration="10.00" /><stop edge="-51691749#4" parking="true" duration="10.00" /><stop edge="1163782197#2" parking="true" duration="10.00" /><stop edge="-51691749#4" parking="true" duration="10.00" /></trip><trip id="dongchong_motorcycle35" type="motorcycle" depart="0.00" departLane="best" from="1163782197#2" to="-51691749#4"><stop edge="-51691749#4" parking="true" duration="10.00" /><stop edge="1163782197#2" parking="true" duration="10.00" /><stop edge="-51691749#4" parking="true" duration="10.00" /><stop edge="1163782197#2" parking="true" duration="10.00" /><stop edge="-51691749#4" parking="true" duration="10.00" /><stop edge="1163782197#2" parking="true" duration="10.00" /><stop edge="-51691749#4" parking="true" duration="10.00" /></trip><trip id="dongchong_motorcycle36" type="motorcycle" depart="0.00" departLane="best" from="1163782197#2" to="-51691749#4"><stop edge="-51691749#4" parking="true" duration="10.00" /><stop edge="1163782197#2" parking="true" duration="10.00" /><stop edge="-51691749#4" parking="true" duration="10.00" /><stop edge="1163782197#2" parking="true" duration="10.00" /><stop edge="-51691749#4" parking="true" duration="10.00" /><stop edge="1163782197#2" parking="true" duration="10.00" /><stop edge="-51691749#4" parking="true" duration="10.00" /></trip><trip id="dongchong_motorcycle37" type="motorcycle" depart="0.00" departLane="best" from="1163782197#2" to="-51691749#4"><stop edge="-51691749#4" parking="true" duration="10.00" /><stop edge="1163782197#2" parking="true" duration="10.00" /><stop edge="-51691749#4" parking="true" duration="10.00" /><stop edge="1163782197#2" parking="true" duration="10.00" /><stop edge="-51691749#4" parking="true" duration="10.00" /><stop edge="1163782197#2" parking="true" duration="10.00" /><stop edge="-51691749#4" parking="true" duration="10.00" /></trip><trip id="dongchong_motorcycle38" type="motorcycle" depart="0.00" departLane="best" from="1163782197#2" to="-51691749#4"><stop edge="-51691749#4" parking="true" duration="10.00" /><stop edge="1163782197#2" parking="true" duration="10.00" /><stop edge="-51691749#4" parking="true" duration="10.00" /><stop edge="1163782197#2" parking="true" duration="10.00" /><stop edge="-51691749#4" parking="true" duration="10.00" /><stop edge="1163782197#2" parking="true" duration="10.00" /><stop edge="-51691749#4" parking="true" duration="10.00" /></trip><trip id="dongchong_motorcycle39" type="motorcycle" depart="0.00" departLane="best" from="1163782197#2" to="-51691749#4"><stop edge="-51691749#4" parking="true" duration="10.00" /><stop edge="1163782197#2" parking="true" duration="10.00" /><stop edge="-51691749#4" parking="true" duration="10.00" /><stop edge="1163782197#2" parking="true" duration="10.00" /><stop edge="-51691749#4" parking="true" duration="10.00" /><stop edge="1163782197#2" parking="true" duration="10.00" /><stop edge="-51691749#4" parking="true" duration="10.00" /></trip><trip id="dongchong_motorcycle40" type="motorcycle" depart="0.00" departLane="best" from="1163782197#2" to="-51691749#4"><stop edge="-51691749#4" parking="true" duration="10.00" /><stop edge="1163782197#2" parking="true" duration="10.00" /><stop edge="-51691749#4" parking="true" duration="10.00" /><stop edge="1163782197#2" parking="true" duration="10.00" /><stop edge="-51691749#4" parking="true" duration="10.00" /><stop edge="1163782197#2" parking="true" duration="10.00" /><stop edge="-51691749#4" parking="true" duration="10.00" /></trip><trip id="dongchong_motorcycle41" type="motorcycle" depart="0.00" departLane="best" from="1163782197#2" to="-51691749#4"><stop edge="-51691749#4" parking="true" duration="10.00" /><stop edge="1163782197#2" parking="true" duration="10.00" /><stop edge="-51691749#4" parking="true" duration="10.00" /><stop edge="1163782197#2" parking="true" duration="10.00" /><stop edge="-51691749#4" parking="true" duration="10.00" /><stop edge="1163782197#2" parking="true" duration="10.00" /><stop edge="-51691749#4" parking="true" duration="10.00" /></trip><trip id="dongchong_motorcycle42" type="motorcycle" depart="0.00" departLane="best" from="1163782197#2" to="-51691749#4"><stop edge="-51691749#4" parking="true" duration="10.00" /><stop edge="1163782197#2" parking="true" duration="10.00" /><stop edge="-51691749#4" parking="true" duration="10.00" /><stop edge="1163782197#2" parking="true" duration="10.00" /><stop edge="-51691749#4" parking="true" duration="10.00" /><stop edge="1163782197#2" parking="true" duration="10.00" /><stop edge="-51691749#4" parking="true" duration="10.00" /></trip><trip id="dongchong_motorcycle43" type="motorcycle" depart="0.00" departLane="best" from="1163782197#2" to="-51691749#4"><stop edge="-51691749#4" parking="true" duration="10.00" /><stop edge="1163782197#2" parking="true" duration="10.00" /><stop edge="-51691749#4" parking="true" duration="10.00" /><stop edge="1163782197#2" parking="true" duration="10.00" /><stop edge="-51691749#4" parking="true" duration="10.00" /><stop edge="1163782197#2" parking="true" duration="10.00" /><stop edge="-51691749#4" parking="true" duration="10.00" /></trip><trip id="dongchong_motorcycle44" type="motorcycle" depart="0.00" departLane="best" from="1163782197#2" to="-51691749#4"><stop edge="-51691749#4" parking="true" duration="10.00" /><stop edge="1163782197#2" parking="true" duration="10.00" /><stop edge="-51691749#4" parking="true" duration="10.00" /><stop edge="1163782197#2" parking="true" duration="10.00" /><stop edge="-51691749#4" parking="true" duration="10.00" /><stop edge="1163782197#2" parking="true" duration="10.00" /><stop edge="-51691749#4" parking="true" duration="10.00" /></trip><trip id="dongchong_motorcycle45" type="motorcycle" depart="0.00" departLane="best" from="1163782197#2" to="-51691749#4"><stop edge="-51691749#4" parking="true" duration="10.00" /><stop edge="1163782197#2" parking="true" duration="10.00" /><stop edge="-51691749#4" parking="true" duration="10.00" /><stop edge="1163782197#2" parking="true" duration="10.00" /><stop edge="-51691749#4" parking="true" duration="10.00" /><stop edge="1163782197#2" parking="true" duration="10.00" /><stop edge="-51691749#4" parking="true" duration="10.00" /></trip><trip id="dongchong_motorcycle46" type="motorcycle" depart="0.00" departLane="best" from="1163782197#2" to="-51691749#4"><stop edge="-51691749#4" parking="true" duration="10.00" /><stop edge="1163782197#2" parking="true" duration="10.00" /><stop edge="-51691749#4" parking="true" duration="10.00" /><stop edge="1163782197#2" parking="true" duration="10.00" /><stop edge="-51691749#4" parking="true" duration="10.00" /><stop edge="1163782197#2" parking="true" duration="10.00" /><stop edge="-51691749#4" parking="true" duration="10.00" /></trip><trip id="dongchong_motorcycle47" type="motorcycle" depart="0.00" departLane="best" from="1163782197#2" to="-51691749#4"><stop edge="-51691749#4" parking="true" duration="10.00" /><stop edge="1163782197#2" parking="true" duration="10.00" /><stop edge="-51691749#4" parking="true" duration="10.00" /><stop edge="1163782197#2" parking="true" duration="10.00" /><stop edge="-51691749#4" parking="true" duration="10.00" /><stop edge="1163782197#2" parking="true" duration="10.00" /><stop edge="-51691749#4" parking="true" duration="10.00" /></trip><trip id="dongchong_motorcycle48" type="motorcycle" depart="0.00" departLane="best" from="1163782197#2" to="-51691749#4"><stop edge="-51691749#4" parking="true" duration="10.00" /><stop edge="1163782197#2" parking="true" duration="10.00" /><stop edge="-51691749#4" parking="true" duration="10.00" /><stop edge="1163782197#2" parking="true" duration="10.00" /><stop edge="-51691749#4" parking="true" duration="10.00" /><stop edge="1163782197#2" parking="true" duration="10.00" /><stop edge="-51691749#4" parking="true" duration="10.00" /></trip><trip id="dongchong_motorcycle49" type="motorcycle" depart="0.00" departLane="best" from="1163782197#2" to="-51691749#4"><stop edge="-51691749#4" parking="true" duration="10.00" /><stop edge="1163782197#2" parking="true" duration="10.00" /><stop edge="-51691749#4" parking="true" duration="10.00" /><stop edge="1163782197#2" parking="true" duration="10.00" /><stop edge="-51691749#4" parking="true" duration="10.00" /><stop edge="1163782197#2" parking="true" duration="10.00" /><stop edge="-51691749#4" parking="true" duration="10.00" /></trip><trip id="dongchong_motorcycle50" type="motorcycle" depart="0.00" departLane="best" from="1163782197#2" to="-51691749#4"><stop edge="-51691749#4" parking="true" duration="10.00" /><stop edge="1163782197#2" parking="true" duration="10.00" /><stop edge="-51691749#4" parking="true" duration="10.00" /><stop edge="1163782197#2" parking="true" duration="10.00" /><stop edge="-51691749#4" parking="true" duration="10.00" /><stop edge="1163782197#2" parking="true" duration="10.00" /><stop edge="-51691749#4" parking="true" duration="10.00" /></trip><trip id="dongchong_motorcycle51" type="motorcycle" depart="0.00" departLane="best" from="1163782197#2" to="-51691749#4"><stop edge="-51691749#4" parking="true" duration="10.00" /><stop edge="1163782197#2" parking="true" duration="10.00" /><stop edge="-51691749#4" parking="true" duration="10.00" /><stop edge="1163782197#2" parking="true" duration="10.00" /><stop edge="-51691749#4" parking="true" duration="10.00" /><stop edge="1163782197#2" parking="true" duration="10.00" /><stop edge="-51691749#4" parking="true" duration="10.00" /></trip><trip id="dongchong_motorcycle52" type="motorcycle" depart="0.00" departLane="best" from="1163782197#2" to="-51691749#4"><stop edge="-51691749#4" parking="true" duration="10.00" /><stop edge="1163782197#2" parking="true" duration="10.00" /><stop edge="-51691749#4" parking="true" duration="10.00" /><stop edge="1163782197#2" parking="true" duration="10.00" /><stop edge="-51691749#4" parking="true" duration="10.00" /><stop edge="1163782197#2" parking="true" duration="10.00" /><stop edge="-51691749#4" parking="true" duration="10.00" /></trip><trip id="dongchong_motorcycle53" type="motorcycle" depart="0.00" departLane="best" from="1163782197#2" to="-51691749#4"><stop edge="-51691749#4" parking="true" duration="10.00" /><stop edge="1163782197#2" parking="true" duration="10.00" /><stop edge="-51691749#4" parking="true" duration="10.00" /><stop edge="1163782197#2" parking="true" duration="10.00" /><stop edge="-51691749#4" parking="true" duration="10.00" /><stop edge="1163782197#2" parking="true" duration="10.00" /><stop edge="-51691749#4" parking="true" duration="10.00" /></trip><trip id="dongchong_motorcycle54" type="motorcycle" depart="0.00" departLane="best" from="1163782197#2" to="-51691749#4"><stop edge="-51691749#4" parking="true" duration="10.00" /><stop edge="1163782197#2" parking="true" duration="10.00" /><stop edge="-51691749#4" parking="true" duration="10.00" /><stop edge="1163782197#2" parking="true" duration="10.00" /><stop edge="-51691749#4" parking="true" duration="10