<?xml version="1.0" ?>
<routes xmlns:xsi="http://www.w3.org/2001/XMLSchema-instance" xsi:noNamespaceSchemaLocation="http://sumo.dlr.de/xsd/routes_file.xsd">
  <vType id="taxi" vClass="taxi" maxSpeed="80"/>
  <trip id="beigang_taxi_0" type="taxi" depart="30" departLane="best" from="1068471749#0" to="715792677">
    <stop edge="715792677" parking="true" duration="0"/>
  </trip>
  <trip id="beigang_taxi_1" type="taxi" depart="31" departLane="best" from="1068471749#0" to="715792677">
    <stop edge="715792677" parking="true" duration="0"/>
  </trip>
  <trip id="beigang_taxi_2" type="taxi" depart="32" departLane="best" from="1068471749#0" to="715792677">
    <stop edge="715792677" parking="true" duration="0"/>
  </trip>
  <trip id="beigang_taxi_3" type="taxi" depart="33" departLane="best" from="1068471749#0" to="715792677">
    <stop edge="715792677" parking="true" duration="0"/>
  </trip>
  <trip id="beigang_taxi_4" type="taxi" depart="34" departLane="best" from="1068471749#0" to="715792677">
    <stop edge="715792677" parking="true" duration="0"/>
  </trip>
  <trip id="houshan_taxi_0" type="taxi" depart="45" departLane="best" from="1068471755#2" to="1172895350#7">
    <stop edge="1172895350#7" parking="true" duration="0"/>
  </trip>
  <trip id="houshan_taxi_1" type="taxi" depart="46" departLane="best" from="1068471755#2" to="1172895350#7">
    <stop edge="1172895350#7" parking="true" duration="0"/>
  </trip>
  <trip id="houshan_taxi_2" type="taxi" depart="47" departLane="best" from="1068471755#2" to="1172895350#7">
    <stop edge="1172895350#7" parking="true" duration="0"/>
  </trip>
  <trip id="houshan_taxi_3" type="taxi" depart="48" departLane="best" from="1068471755#2" to="1172895350#7">
    <stop edge="1172895350#7" parking="true" duration="0"/>
  </trip>
  <trip id="houshan_taxi_4" type="taxi" depart="49" departLane="best" from="1068471755#2" to="1172895350#7">
    <stop edge="1172895350#7" parking="true" duration="0"/>
  </trip>
  <trip id="panqian_taxi_0" type="taxi" depart="60" departLane="best" from="1068471755#2" to="543863877#1">
    <stop edge="543863877#1" parking="true" duration="0"/>
  </trip>
  <trip id="panqian_taxi_1" type="taxi" depart="61" departLane="best" from="1068471755#2" to="543863877#1">
    <stop edge="543863877#1" parking="true" duration="0"/>
  </trip>
  <trip id="panqian_taxi_2" type="taxi" depart="62" departLane="best" from="1068471755#2" to="543863877#1">
    <stop edge="543863877#1" parking="true" duration="0"/>
  </trip>
  <trip id="panqian_taxi_3" type="taxi" depart="63" departLane="best" from="1068471755#2" to="543863877#1">
    <stop edge="543863877#1" parking="true" duration="0"/>
  </trip>
  <trip id="panqian_taxi_4" type="taxi" depart="64" departLane="best" from="1068471755#2" to="543863877#1">
    <stop edge="543863877#1" parking="true" duration="0"/>
  </trip>
  <trip id="xiahu_taxi_0" type="taxi" depart="75" departLane="best" from="229540619#2" to="1172895350#7">
    <stop edge="1172895350#7" parking="true" duration="0"/>
  </trip>
  <trip id="xiahu_taxi_1" type="taxi" depart="76" departLane="best" from="229540619#2" to="1172895350#7">
    <stop edge="1172895350#7" parking="true" duration="0"/>
  </trip>
  <trip id="xiahu_taxi_2" type="taxi" depart="77" departLane="best" from="229540619#2" to="1172895350#7">
    <stop edge="1172895350#7" parking="true" duration="0"/>
  </trip>
  <trip id="xiahu_taxi_3" type="taxi" depart="78" departLane="best" from="229540619#2" to="1172895350#7">
    <stop edge="1172895350#7" parking="true" duration="0"/>
  </trip>
  <trip id="xiahu_taxi_4" type="taxi" depart="79" departLane="best" from="229540619#2" to="1172895350#7">
    <stop edge="1172895350#7" parking="true" duration="0"/>
  </trip>
  <trip id="jinxie_taxi_0" type="taxi" depart="90" departLane="best" from="1164353535" to="977360507#0">
    <stop edge="977360507#0" parking="true" duration="0"/>
  </trip>
  <trip id="jinxie_taxi_1" type="taxi" depart="91" departLane="best" from="1164353535" to="977360507#0">
    <stop edge="977360507#0" parking="true" duration="0"/>
  </trip>
  <trip id="jinxie_taxi_2" type="taxi" depart="92" departLane="best" from="1164353535" to="977360507#0">
    <stop edge="977360507#0" parking="true" duration="0"/>
  </trip>
  <trip id="jinxie_taxi_3" type="taxi" depart="93" departLane="best" from="1164353535" to="977360507#0">
    <stop edge="977360507#0" parking="true" duration="0"/>
  </trip>
  <trip id="jinxie_taxi_4" type="taxi" depart="94" departLane="best" from="1164353535" to="977360507#0">
    <stop edge="977360507#0" parking="true" duration="0"/>
  </trip>
  <trip id="liujin_taxi_0" type="taxi" depart="105" departLane="best" from="-474258045" to="-51691749#4">
    <stop edge="-51691749#4" parking="true" duration="0"/>
  </trip>
  <trip id="liujin_taxi_1" type="taxi" depart="106" departLane="best" from="-474258045" to="-51691749#4">
    <stop edge="-51691749#4" parking="true" duration="0"/>
  </trip>
  <trip id="liujin_taxi_2" type="taxi" depart="107" departLane="best" from="-474258045" to="-51691749#4">
    <stop edge="-51691749#4" parking="true" duration="0"/>
  </trip>
  <trip id="liujin_taxi_3" type="taxi" depart="108" departLane="best" from="-474258045" to="-51691749#4">
    <stop edge="-51691749#4" parking="true" duration="0"/>
  </trip>
  <trip id="liujin_taxi_4" type="taxi" depart="109" departLane="best" from="-474258045" to="-51691749#4">
    <stop edge="-51691749#4" parking="true" duration="0"/>
  </trip>
</routes>
