<?xml version="1.0" ?>
<routes xmlns:xsi="http://www.w3.org/2001/XMLSchema-instance" xsi:noNamespaceSchemaLocation="http://sumo.dlr.de/xsd/routes_file.xsd">
  <vType id="private" vClass="private" maxSpeed="30"/>
  <trip id="dongchong_private_0" type="private" depart="10" departLane="best" from="1163782197#2" to="977360507#0">
    <stop edge="977360507#0" parking="true" duration="0"/>
  </trip>
  <trip id="dongchong_private_1" type="private" depart="11" departLane="best" from="1163782197#2" to="977360507#0">
    <stop edge="977360507#0" parking="true" duration="0"/>
  </trip>
  <trip id="dongchong_private_2" type="private" depart="12" departLane="best" from="1163782197#2" to="977360507#0">
    <stop edge="977360507#0" parking="true" duration="0"/>
  </trip>
  <trip id="dongchong_private_3" type="private" depart="13" departLane="best" from="1163782197#2" to="977360507#0">
    <stop edge="977360507#0" parking="true" duration="0"/>
  </trip>
  <trip id="dongchong_private_4" type="private" depart="14" departLane="best" from="1163782197#2" to="977360507#0">
    <stop edge="977360507#0" parking="true" duration="0"/>
  </trip>
  <trip id="dongchong_private_5" type="private" depart="15" departLane="best" from="1163782197#2" to="977360507#0">
    <stop edge="977360507#0" parking="true" duration="0"/>
  </trip>
  <trip id="dongchong_private_6" type="private" depart="16" departLane="best" from="1163782197#2" to="977360507#0">
    <stop edge="977360507#0" parking="true" duration="0"/>
  </trip>
  <trip id="dongchong_private_7" type="private" depart="17" departLane="best" from="1163782197#2" to="977360507#0">
    <stop edge="977360507#0" parking="true" duration="0"/>
  </trip>
  <trip id="dongchong_private_8" type="private" depart="18" departLane="best" from="1163782197#2" to="977360507#0">
    <stop edge="977360507#0" parking="true" duration="0"/>
  </trip>
  <trip id="dongchong_private_9" type="private" depart="19" departLane="best" from="1163782197#2" to="977360507#0">
    <stop edge="977360507#0" parking="true" duration="0"/>
  </trip>
  <trip id="dongchong_private_10" type="private" depart="20" departLane="best" from="1163782197#2" to="977360507#0">
    <stop edge="977360507#0" parking="true" duration="0"/>
  </trip>
  <trip id="dongchong_private_11" type="private" depart="21" departLane="best" from="1163782197#2" to="977360507#0">
    <stop edge="977360507#0" parking="true" duration="0"/>
  </trip>
  <trip id="dongchong_private_12" type="private" depart="22" departLane="best" from="1163782197#2" to="977360507#0">
    <stop edge="977360507#0" parking="true" duration="0"/>
  </trip>
  <trip id="dongchong_private_13" type="private" depart="23" departLane="best" from="1163782197#2" to="977360507#0">
    <stop edge="977360507#0" parking="true" duration="0"/>
  </trip>
  <trip id="dongchong_private_14" type="private" depart="24" departLane="best" from="1163782197#2" to="977360507#0">
    <stop edge="977360507#0" parking="true" duration="0"/>
  </trip>
  <trip id="dongchong_private_15" type="private" depart="25" departLane="best" from="1163782197#2" to="977360507#0">
    <stop edge="977360507#0" parking="true" duration="0"/>
  </trip>
  <trip id="dongchong_private_16" type="private" depart="26" departLane="best" from="1163782197#2" to="977360507#0">
    <stop edge="977360507#0" parking="true" duration="0"/>
  </trip>
  <trip id="dongchong_private_17" type="private" depart="27" departLane="best" from="1163782197#2" to="977360507#0">
    <stop edge="977360507#0" parking="true" duration="0"/>
  </trip>
  <trip id="dongchong_private_18" type="private" depart="28" departLane="best" from="1163782197#2" to="977360507#0">
    <stop edge="977360507#0" parking="true" duration="0"/>
  </trip>
  <trip id="dongchong_private_19" type="private" depart="29" departLane="best" from="1163782197#2" to="977360507#0">
    <stop edge="977360507#0" parking="true" duration="0"/>
  </trip>
  <trip id="dongchong_private_20" type="private" depart="30" departLane="best" from="1163782197#2" to="977360507#0">
    <stop edge="977360507#0" parking="true" duration="0"/>
  </trip>
  <trip id="dongchong_private_21" type="private" depart="31" departLane="best" from="1163782197#2" to="977360507#0">
    <stop edge="977360507#0" parking="true" duration="0"/>
  </trip>
  <trip id="dongchong_private_22" type="private" depart="32" departLane="best" from="1163782197#2" to="977360507#0">
    <stop edge="977360507#0" parking="true" duration="0"/>
  </trip>
  <trip id="dongchong_private_23" type="private" depart="33" departLane="best" from="1163782197#2" to="977360507#0">
    <stop edge="977360507#0" parking="true" duration="0"/>
  </trip>
  <trip id="dongchong_private_24" type="private" depart="34" departLane="best" from="1163782197#2" to="977360507#0">
    <stop edge="977360507#0" parking="true" duration="0"/>
  </trip>
  <trip id="dongchong_private_25" type="private" depart="35" departLane="best" from="1163782197#2" to="977360507#0">
    <stop edge="977360507#0" parking="true" duration="0"/>
  </trip>
  <trip id="dongchong_private_26" type="private" depart="36" departLane="best" from="1163782197#2" to="977360507#0">
    <stop edge="977360507#0" parking="true" duration="0"/>
  </trip>
  <trip id="dongchong_private_27" type="private" depart="37" departLane="best" from="1163782197#2" to="977360507#0">
    <stop edge="977360507#0" parking="true" duration="0"/>
  </trip>
  <trip id="dongchong_private_28" type="private" depart="38" departLane="best" from="1163782197#2" to="977360507#0">
    <stop edge="977360507#0" parking="true" duration="0"/>
  </trip>
  <trip id="dongchong_private_29" type="private" depart="39" departLane="best" from="1163782197#2" to="977360507#0">
    <stop edge="977360507#0" parking="true" duration="0"/>
  </trip>
  <trip id="dongchong_private_30" type="private" depart="40" departLane="best" from="1163782197#2" to="977360507#0">
    <stop edge="977360507#0" parking="true" duration="0"/>
  </trip>
  <trip id="dongchong_private_31" type="private" depart="41" departLane="best" from="1163782197#2" to="977360507#0">
    <stop edge="977360507#0" parking="true" duration="0"/>
  </trip>
  <trip id="dongchong_private_32" type="private" depart="42" departLane="best" from="1163782197#2" to="977360507#0">
    <stop edge="977360507#0" parking="true" duration="0"/>
  </trip>
  <trip id="dongchong_private_33" type="private" depart="43" departLane="best" from="1163782197#2" to="977360507#0">
    <stop edge="977360507#0" parking="true" duration="0"/>
  </trip>
  <trip id="dongchong_private_34" type="private" depart="44" departLane="best" from="1163782197#2" to="977360507#0">
    <stop edge="977360507#0" parking="true" duration="0"/>
  </trip>
  <trip id="dongchong_private_35" type="private" depart="45" departLane="best" from="1163782197#2" to="977360507#0">
    <stop edge="977360507#0" parking="true" duration="0"/>
  </trip>
  <trip id="dongchong_private_36" type="private" depart="46" departLane="best" from="1163782197#2" to="977360507#0">
    <stop edge="977360507#0" parking="true" duration="0"/>
  </trip>
  <trip id="dongchong_private_37" type="private" depart="47" departLane="best" from="1163782197#2" to="977360507#0">
    <stop edge="977360507#0" parking="true" duration="0"/>
  </trip>
  <trip id="dongchong_private_38" type="private" depart="48" departLane="best" from="1163782197#2" to="977360507#0">
    <stop edge="977360507#0" parking="true" duration="0"/>
  </trip>
  <trip id="dongchong_private_39" type="private" depart="49" departLane="best" from="1163782197#2" to="977360507#0">
    <stop edge="977360507#0" parking="true" duration="0"/>
  </trip>
  <trip id="dongchong_private_40" type="private" depart="50" departLane="best" from="1163782197#2" to="977360507#0">
    <stop edge="977360507#0" parking="true" duration="0"/>
  </trip>
  <trip id="dongchong_private_41" type="private" depart="51" departLane="best" from="1163782197#2" to="977360507#0">
    <stop edge="977360507#0" parking="true" duration="0"/>
  </trip>
  <trip id="dongchong_private_42" type="private" depart="52" departLane="best" from="1163782197#2" to="977360507#0">
    <stop edge="977360507#0" parking="true" duration="0"/>
  </trip>
  <trip id="dongchong_private_43" type="private" depart="53" departLane="best" from="1163782197#2" to="977360507#0">
    <stop edge="977360507#0" parking="true" duration="0"/>
  </trip>
  <trip id="dongchong_private_44" type="private" depart="54" departLane="best" from="1163782197#2" to="977360507#0">
    <stop edge="977360507#0" parking="true" duration="0"/>
  </trip>
  <trip id="dongchong_private_45" type="private" depart="55" departLane="best" from="1163782197#2" to="977360507#0">
    <stop edge="977360507#0" parking="true" duration="0"/>
  </trip>
  <trip id="dongchong_private_46" type="private" depart="56" departLane="best" from="1163782197#2" to="977360507#0">
    <stop edge="977360507#0" parking="true" duration="0"/>
  </trip>
  <trip id="dongchong_private_47" type="private" depart="57" departLane="best" from="1163782197#2" to="977360507#0">
    <stop edge="977360507#0" parking="true" duration="0"/>
  </trip>
  <trip id="dongchong_private_48" type="private" depart="58" departLane="best" from="1163782197#2" to="977360507#0">
    <stop edge="977360507#0" parking="true" duration="0"/>
  </trip>
  <trip id="dongchong_private_49" type="private" depart="59" departLane="best" from="1163782197#2" to="977360507#0">
    <stop edge="977360507#0" parking="true" duration="0"/>
  </trip>
  <trip id="dongchong_private_50" type="private" depart="60" departLane="best" from="1163782197#2" to="977360507#0">
    <stop edge="977360507#0" parking="true" duration="0"/>
  </trip>
  <trip id="dongchong_private_51" type="private" depart="61" departLane="best" from="1163782197#2" to="977360507#0">
    <stop edge="977360507#0" parking="true" duration="0"/>
  </trip>
  <trip id="dongchong_private_52" type="private" depart="62" departLane="best" from="1163782197#2" to="977360507#0">
    <stop edge="977360507#0" parking="true" duration="0"/>
  </trip>
  <trip id="dongchong_private_53" type="private" depart="63" departLane="best" from="1163782197#2" to="977360507#0">
    <stop edge="977360507#0" parking="true" duration="0"/>
  </trip>
  <trip id="dongchong_private_54" type="private" depart="64" departLane="best" from="1163782197#2" to="977360507#0">
    <stop edge="977360507#0" parking="true" duration="0"/>
  </trip>
  <trip id="dongchong_private_55" type="private" depart="65" departLane="best" from="1163782197#2" to="977360507#0">
    <stop edge="977360507#0" parking="true" duration="0"/>
  </trip>
  <trip id="dongchong_private_56" type="private" depart="66" departLane="best" from="1163782197#2" to="977360507#0">
    <stop edge="977360507#0" parking="true" duration="0"/>
  </trip>
  <trip id="dongchong_private_57" type="private" depart="67" departLane="best" from="1163782197#2" to="977360507#0">
    <stop edge="977360507#0" parking="true" duration="0"/>
  </trip>
  <trip id="dongchong_private_58" type="private" depart="68" departLane="best" from="1163782197#2" to="977360507#0">
    <stop edge="977360507#0" parking="true" duration="0"/>
  </trip>
  <trip id="dongchong_private_59" type="private" depart="69" departLane="best" from="1163782197#2" to="977360507#0">
    <stop edge="977360507#0" parking="true" duration="0"/>
  </trip>
  <trip id="dongchong_private_60" type="private" depart="70" departLane="best" from="1163782197#2" to="977360507#0">
    <stop edge="977360507#0" parking="true" duration="0"/>
  </trip>
  <trip id="dongchong_private_61" type="private" depart="71" departLane="best" from="1163782197#2" to="977360507#0">
    <stop edge="977360507#0" parking="true" duration="0"/>
  </trip>
  <trip id="dongchong_private_62" type="private" depart="72" departLane="best" from="1163782197#2" to="977360507#0">
    <stop edge="977360507#0" parking="true" duration="0"/>
  </trip>
  <trip id="dongchong_private_63" type="private" depart="73" departLane="best" from="1163782197#2" to="977360507#0">
    <stop edge="977360507#0" parking="true" duration="0"/>
  </trip>
  <trip id="dongchong_private_64" type="private" depart="74" departLane="best" from="1163782197#2" to="977360507#0">
    <stop edge="977360507#0" parking="true" duration="0"/>
  </trip>
  <trip id="dongchong_private_65" type="private" depart="75" departLane="best" from="1163782197#2" to="977360507#0">
    <stop edge="977360507#0" parking="true" duration="0"/>
  </trip>
  <trip id="dongchong_private_66" type="private" depart="76" departLane="best" from="1163782197#2" to="977360507#0">
    <stop edge="977360507#0" parking="true" duration="0"/>
  </trip>
  <trip id="dongchong_private_67" type="private" depart="77" departLane="best" from="1163782197#2" to="977360507#0">
    <stop edge="977360507#0" parking="true" duration="0"/>
  </trip>
  <trip id="dongchong_private_68" type="private" depart="78" departLane="best" from="1163782197#2" to="977360507#0">
    <stop edge="977360507#0" parking="true" duration="0"/>
  </trip>
  <trip id="dongchong_private_69" type="private" depart="79" departLane="best" from="1163782197#2" to="977360507#0">
    <stop edge="977360507#0" parking="true" duration="0"/>
  </trip>
  <trip id="dongchong_private_70" type="private" depart="80" departLane="best" from="1163782197#2" to="977360507#0">
    <stop edge="977360507#0" parking="true" duration="0"/>
  </trip>
  <trip id="dongchong_private_71" type="private" depart="81" departLane="best" from="1163782197#2" to="977360507#0">
    <stop edge="977360507#0" parking="true" duration="0"/>
  </trip>
  <trip id="dongchong_private_72" type="private" depart="82" departLane="best" from="1163782197#2" to="977360507#0">
    <stop edge="977360507#0" parking="true" duration="0"/>
  </trip>
  <trip id="dongchong_private_73" type="private" depart="83" departLane="best" from="1163782197#2" to="977360507#0">
    <stop edge="977360507#0" parking="true" duration="0"/>
  </trip>
  <trip id="dongchong_private_74" type="private" depart="84" departLane="best" from="1163782197#2" to="977360507#0">
    <stop edge="977360507#0" parking="true" duration="0"/>
  </trip>
  <trip id="dongchong_private_75" type="private" depart="85" departLane="best" from="1163782197#2" to="977360507#0">
    <stop edge="977360507#0" parking="true" duration="0"/>
  </trip>
  <trip id="dongchong_private_76" type="private" depart="86" departLane="best" from="1163782197#2" to="977360507#0">
    <stop edge="977360507#0" parking="true" duration="0"/>
  </trip>
  <trip id="dongchong_private_77" type="private" depart="87" departLane="best" from="1163782197#2" to="977360507#0">
    <stop edge="977360507#0" parking="true" duration="0"/>
  </trip>
  <trip id="dongchong_private_78" type="private" depart="88" departLane="best" from="1163782197#2" to="977360507#0">
    <stop edge="977360507#0" parking="true" duration="0"/>
  </trip>
  <trip id="dongchong_private_79" type="private" depart="89" departLane="best" from="1163782197#2" to="977360507#0">
    <stop edge="977360507#0" parking="true" duration="0"/>
  </trip>
  <trip id="beibi_private_0" type="private" depart="100" departLane="best" from="296185646#0" to="-51691749#4">
    <stop edge="-51691749#4" parking="true" duration="0"/>
  </trip>
  <trip id="beibi_private_1" type="private" depart="101" departLane="best" from="296185646#0" to="-51691749#4">
    <stop edge="-51691749#4" parking="true" duration="0"/>
  </trip>
  <trip id="beibi_private_2" type="private" depart="102" departLane="best" from="296185646#0" to="-51691749#4">
    <stop edge="-51691749#4" parking="true" duration="0"/>
  </trip>
  <trip id="beibi_private_3" type="private" depart="103" departLane="best" from="296185646#0" to="-51691749#4">
    <stop edge="-51691749#4" parking="true" duration="0"/>
  </trip>
  <trip id="beibi_private_4" type="private" depart="104" departLane="best" from="296185646#0" to="-51691749#4">
    <stop edge="-51691749#4" parking="true" duration="0"/>
  </trip>
  <trip id="beibi_private_5" type="private" depart="105" departLane="best" from="296185646#0" to="-51691749#4">
    <stop edge="-51691749#4" parking="true" duration="0"/>
  </trip>
  <trip id="beibi_private_6" type="private" depart="106" departLane="best" from="296185646#0" to="-51691749#4">
    <stop edge="-51691749#4" parking="true" duration="0"/>
  </trip>
  <trip id="beibi_private_7" type="private" depart="107" departLane="best" from="296185646#0" to="-51691749#4">
    <stop edge="-51691749#4" parking="true" duration="0"/>
  </trip>
  <trip id="beibi_private_8" type="private" depart="108" departLane="best" from="296185646#0" to="-51691749#4">
    <stop edge="-51691749#4" parking="true" duration="0"/>
  </trip>
  <trip id="beibi_private_9" type="private" depart="109" departLane="best" from="296185646#0" to="-51691749#4">
    <stop edge="-51691749#4" parking="true" duration="0"/>
  </trip>
  <trip id="beibi_private_10" type="private" depart="110" departLane="best" from="296185646#0" to="-51691749#4">
    <stop edge="-51691749#4" parking="true" duration="0"/>
  </trip>
  <trip id="beibi_private_11" type="private" depart="111" departLane="best" from="296185646#0" to="-51691749#4">
    <stop edge="-51691749#4" parking="true" duration="0"/>
  </trip>
  <trip id="beibi_private_12" type="private" depart="112" departLane="best" from="296185646#0" to="-51691749#4">
    <stop edge="-51691749#4" parking="true" duration="0"/>
  </trip>
  <trip id="beibi_private_13" type="private" depart="113" departLane="best" from="296185646#0" to="-51691749#4">
    <stop edge="-51691749#4" parking="true" duration="0"/>
  </trip>
  <trip id="beibi_private_14" type="private" depart="114" departLane="best" from="296185646#0" to="-51691749#4">
    <stop edge="-51691749#4" parking="true" duration="0"/>
  </trip>
  <trip id="beibi_private_15" type="private" depart="115" departLane="best" from="296185646#0" to="-51691749#4">
    <stop edge="-51691749#4" parking="true" duration="0"/>
  </trip>
  <trip id="beibi_private_16" type="private" depart="116" departLane="best" from="296185646#0" to="-51691749#4">
    <stop edge="-51691749#4" parking="true" duration="0"/>
  </trip>
  <trip id="beibi_private_17" type="private" depart="117" departLane="best" from="296185646#0" to="-51691749#4">
    <stop edge="-51691749#4" parking="true" duration="0"/>
  </trip>
  <trip id="beibi_private_18" type="private" depart="118" departLane="best" from="296185646#0" to="-51691749#4">
    <stop edge="-51691749#4" parking="true" duration="0"/>
  </trip>
  <trip id="beibi_private_19" type="private" depart="119" departLane="best" from="296185646#0" to="-51691749#4">
    <stop edge="-51691749#4" parking="true" duration="0"/>
  </trip>
  <trip id="beibi_private_20" type="private" depart="120" departLane="best" from="296185646#0" to="-51691749#4">
    <stop edge="-51691749#4" parking="true" duration="0"/>
  </trip>
  <trip id="beibi_private_21" type="private" depart="121" departLane="best" from="296185646#0" to="-51691749#4">
    <stop edge="-51691749#4" parking="true" duration="0"/>
  </trip>
  <trip id="beibi_private_22" type="private" depart="122" departLane="best" from="296185646#0" to="-51691749#4">
    <stop edge="-51691749#4" parking="true" duration="0"/>
  </trip>
  <trip id="beibi_private_23" type="private" depart="123" departLane="best" from="296185646#0" to="-51691749#4">
    <stop edge="-51691749#4" parking="true" duration="0"/>
  </trip>
  <trip id="beibi_private_24" type="private" depart="124" departLane="best" from="296185646#0" to="-51691749#4">
    <stop edge="-51691749#4" parking="true" duration="0"/>
  </trip>
  <trip id="beibi_private_25" type="private" depart="125" departLane="best" from="296185646#0" to="-51691749#4">
    <stop edge="-51691749#4" parking="true" duration="0"/>
  </trip>
  <trip id="beibi_private_26" type="private" depart="126" departLane="best" from="296185646#0" to="-51691749#4">
    <stop edge="-51691749#4" parking="true" duration="0"/>
  </trip>
  <trip id="beibi_private_27" type="private" depart="127" departLane="best" from="296185646#0" to="-51691749#4">
    <stop edge="-51691749#4" parking="true" duration="0"/>
  </trip>
  <trip id="beibi_private_28" type="private" depart="128" departLane="best" from="296185646#0" to="-51691749#4">
    <stop edge="-51691749#4" parking="true" duration="0"/>
  </trip>
  <trip id="beibi_private_29" type="private" depart="129" departLane="best" from="296185646#0" to="-51691749#4">
    <stop edge="-51691749#4" parking="true" duration="0"/>
  </trip>
  <trip id="beibi_private_30" type="private" depart="130" departLane="best" from="296185646#0" to="-51691749#4">
    <stop edge="-51691749#4" parking="true" duration="0"/>
  </trip>
  <trip id="beibi_private_31" type="private" depart="131" departLane="best" from="296185646#0" to="-51691749#4">
    <stop edge="-51691749#4" parking="true" duration="0"/>
  </trip>
  <trip id="beibi_private_32" type="private" depart="132" departLane="best" from="296185646#0" to="-51691749#4">
    <stop edge="-51691749#4" parking="true" duration="0"/>
  </trip>
  <trip id="beibi_private_33" type="private" depart="133" departLane="best" from="296185646#0" to="-51691749#4">
    <stop edge="-51691749#4" parking="true" duration="0"/>
  </trip>
  <trip id="beibi_private_34" type="private" depart="134" departLane="best" from="296185646#0" to="-51691749#4">
    <stop edge="-51691749#4" parking="true" duration="0"/>
  </trip>
  <trip id="beibi_private_35" type="private" depart="135" departLane="best" from="296185646#0" to="-51691749#4">
    <stop edge="-51691749#4" parking="true" duration="0"/>
  </trip>
  <trip id="beibi_private_36" type="private" depart="136" departLane="best" from="296185646#0" to="-51691749#4">
    <stop edge="-51691749#4" parking="true" duration="0"/>
  </trip>
  <trip id="beibi_private_37" type="private" depart="137" departLane="best" from="296185646#0" to="-51691749#4">
    <stop edge="-51691749#4" parking="true" duration="0"/>
  </trip>
  <trip id="beibi_private_38" type="private" depart="138" departLane="best" from="296185646#0" to="-51691749#4">
    <stop edge="-51691749#4" parking="true" duration="0"/>
  </trip>
  <trip id="beibi_private_39" type="private" depart="139" departLane="best" from="296185646#0" to="-51691749#4">
    <stop edge="-51691749#4" parking="true" duration="0"/>
  </trip>
  <trip id="beibi_private_40" type="private" depart="140" departLane="best" from="296185646#0" to="-51691749#4">
    <stop edge="-51691749#4" parking="true" duration="0"/>
  </trip>
  <trip id="beibi_private_41" type="private" depart="141" departLane="best" from="296185646#0" to="-51691749#4">
    <stop edge="-51691749#4" parking="true" duration="0"/>
  </trip>
  <trip id="beibi_private_42" type="private" depart="142" departLane="best" from="296185646#0" to="-51691749#4">
    <stop edge="-51691749#4" parking="true" duration="0"/>
  </trip>
  <trip id="beibi_private_43" type="private" depart="143" departLane="best" from="296185646#0" to="-51691749#4">
    <stop edge="-51691749#4" parking="true" duration="0"/>
  </trip>
  <trip id="beibi_private_44" type="private" depart="144" departLane="best" from="296185646#0" to="-51691749#4">
    <stop edge="-51691749#4" parking="true" duration="0"/>
  </trip>
  <trip id="beibi_private_45" type="private" depart="145" departLane="best" from="296185646#0" to="-51691749#4">
    <stop edge="-51691749#4" parking="true" duration="0"/>
  </trip>
  <trip id="beibi_private_46" type="private" depart="146" departLane="best" from="296185646#0" to="-51691749#4">
    <stop edge="-51691749#4" parking="true" duration="0"/>
  </trip>
  <trip id="beibi_private_47" type="private" depart="147" departLane="best" from="296185646#0" to="-51691749#4">
    <stop edge="-51691749#4" parking="true" duration="0"/>
  </trip>
  <trip id="beibi_private_48" type="private" depart="148" departLane="best" from="296185646#0" to="-51691749#4">
    <stop edge="-51691749#4" parking="true" duration="0"/>
  </trip>
  <trip id="beibi_private_49" type="private" depart="149" departLane="best" from="296185646#0" to="-51691749#4">
    <stop edge="-51691749#4" parking="true" duration="0"/>
  </trip>
  <trip id="beibi_private_50" type="private" depart="150" departLane="best" from="296185646#0" to="-51691749#4">
    <stop edge="-51691749#4" parking="true" duration="0"/>
  </trip>
  <trip id="beibi_private_51" type="private" depart="151" departLane="best" from="296185646#0" to="-51691749#4">
    <stop edge="-51691749#4" parking="true" duration="0"/>
  </trip>
  <trip id="beibi_private_52" type="private" depart="152" departLane="best" from="296185646#0" to="-51691749#4">
    <stop edge="-51691749#4" parking="true" duration="0"/>
  </trip>
  <trip id="beibi_private_53" type="private" depart="153" departLane="best" from="296185646#0" to="-51691749#4">
    <stop edge="-51691749#4" parking="true" duration="0"/>
  </trip>
  <trip id="beibi_private_54" type="private" depart="154" departLane="best" from="296185646#0" to="-51691749#4">
    <stop edge="-51691749#4" parking="true" duration="0"/>
  </trip>
  <trip id="beibi_private_55" type="private" depart="155" departLane="best" from="296185646#0" to="-51691749#4">
    <stop edge="-51691749#4" parking="true" duration="0"/>
  </trip>
  <trip id="beibi_private_56" type="private" depart="156" departLane="best" from="296185646#0" to="-51691749#4">
    <stop edge="-51691749#4" parking="true" duration="0"/>
  </trip>
  <trip id="beibi_private_57" type="private" depart="157" departLane="best" from="296185646#0" to="-51691749#4">
    <stop edge="-51691749#4" parking="true" duration="0"/>
  </trip>
  <trip id="beibi_private_58" type="private" depart="158" departLane="best" from="296185646#0" to="-51691749#4">
    <stop edge="-51691749#4" parking="true" duration="0"/>
  </trip>
  <trip id="beibi_private_59" type="private" depart="159" departLane="best" from="296185646#0" to="-51691749#4">
    <stop edge="-51691749#4" parking="true" duration="0"/>
  </trip>
  <trip id="beibi_private_60" type="private" depart="160" departLane="best" from="296185646#0" to="-51691749#4">
    <stop edge="-51691749#4" parking="true" duration="0"/>
  </trip>
  <trip id="beibi_private_61" type="private" depart="161" departLane="best" from="296185646#0" to="-51691749#4">
    <stop edge="-51691749#4" parking="true" duration="0"/>
  </trip>
  <trip id="beibi_private_62" type="private" depart="162" departLane="best" from="296185646#0" to="-51691749#4">
    <stop edge="-51691749#4" parking="true" duration="0"/>
  </trip>
  <trip id="beibi_private_63" type="private" depart="163" departLane="best" from="296185646#0" to="-51691749#4">
    <stop edge="-51691749#4" parking="true" duration="0"/>
  </trip>
  <trip id="beibi_private_64" type="private" depart="164" departLane="best" from="296185646#0" to="-51691749#4">
    <stop edge="-51691749#4" parking="true" duration="0"/>
  </trip>
  <trip id="beibi_private_65" type="private" depart="165" departLane="best" from="296185646#0" to="-51691749#4">
    <stop edge="-51691749#4" parking="true" duration="0"/>
  </trip>
  <trip id="beibi_private_66" type="private" depart="166" departLane="best" from="296185646#0" to="-51691749#4">
    <stop edge="-51691749#4" parking="true" duration="0"/>
  </trip>
  <trip id="beibi_private_67" type="private" depart="167" departLane="best" from="296185646#0" to="-51691749#4">
    <stop edge="-51691749#4" parking="true" duration="0"/>
  </trip>
  <trip id="beibi_private_68" type="private" depart="168" departLane="best" from="296185646#0" to="-51691749#4">
    <stop edge="-51691749#4" parking="true" duration="0"/>
  </trip>
  <trip id="beibi_private_69" type="private" depart="169" departLane="best" from="296185646#0" to="-51691749#4">
    <stop edge="-51691749#4" parking="true" duration="0"/>
  </trip>
  <trip id="beibi_private_70" type="private" depart="170" departLane="best" from="296185646#0" to="-51691749#4">
    <stop edge="-51691749#4" parking="true" duration="0"/>
  </trip>
  <trip id="beibi_private_71" type="private" depart="171" departLane="best" from="296185646#0" to="-51691749#4">
    <stop edge="-51691749#4" parking="true" duration="0"/>
  </trip>
  <trip id="beibi_private_72" type="private" depart="172" departLane="best" from="296185646#0" to="-51691749#4">
    <stop edge="-51691749#4" parking="true" duration="0"/>
  </trip>
  <trip id="beibi_private_73" type="private" depart="173" departLane="best" from="296185646#0" to="-51691749#4">
    <stop edge="-51691749#4" parking="true" duration="0"/>
  </trip>
  <trip id="beibi_private_74" type="private" depart="174" departLane="best" from="296185646#0" to="-51691749#4">
    <stop edge="-51691749#4" parking="true" duration="0"/>
  </trip>
  <trip id="beibi_private_75" type="private" depart="175" departLane="best" from="296185646#0" to="-51691749#4">
    <stop edge="-51691749#4" parking="true" duration="0"/>
  </trip>
  <trip id="beibi_private_76" type="private" depart="176" departLane="best" from="296185646#0" to="-51691749#4">
    <stop edge="-51691749#4" parking="true" duration="0"/>
  </trip>
  <trip id="beibi_private_77" type="private" depart="177" departLane="best" from="296185646#0" to="-51691749#4">
    <stop edge="-51691749#4" parking="true" duration="0"/>
  </trip>
  <trip id="beibi_private_78" type="private" depart="178" departLane="best" from="296185646#0" to="-51691749#4">
    <stop edge="-51691749#4" parking="true" duration="0"/>
  </trip>
  <trip id="beibi_private_79" type="private" depart="179" departLane="best" from="296185646#0" to="-51691749#4">
    <stop edge="-51691749#4" parking="true" duration="0"/>
  </trip>
  <trip id="beigang_private_0" type="private" depart="190" departLane="best" from="1068471749#0" to="715792677">
    <stop edge="715792677" parking="true" duration="0"/>
  </trip>
  <trip id="beigang_private_1" type="private" depart="191" departLane="best" from="1068471749#0" to="715792677">
    <stop edge="715792677" parking="true" duration="0"/>
  </trip>