<?xml version='1.0' encoding='utf-8'?>
<routes xmlns:xsi="http://www.w3.org/2001/XMLSchema-instance"
        xsi:noNamespaceSchemaLocation="http://sumo.dlr.de/xsd/routes_file.xsd">
    <vType id="bus" vClass="bus"/>
    <trip id="dongchong_bus0" type="bus" depart="0.00" departLane="best" from="1163782197#2" to="-51691749#4">
        <stop edge="-51691749#4" parking="true" duration="10.00"/>
    </trip>
    <trip id="dongchong_bus1" type="bus" depart="0.00" departLane="best" from="1163782197#2" to="-51691749#4">
        <stop edge="-51691749#4" parking="true" duration="10.00"/>
    </trip>
    <trip id="dongchong_bus2" type="bus" depart="0.00" departLane="best" from="1163782197#2" to="-51691749#4">
        <stop edge="-51691749#4" parking="true" duration="10.00"/>
    </trip>
    <trip id="dongchong_bus3" type="bus" depart="0.00" departLane="best" from="1163782197#2" to="-51691749#4">
        <stop edge="-51691749#4" parking="true" duration="10.00"/>
    </trip>
    <trip id="dongchong_bus4" type="bus" depart="0.00" departLane="best" from="1163782197#2" to="-51691749#4">
        <stop edge="-51691749#4" parking="true" duration="10.00"/>
    </trip>
    <trip id="dongchong_bus5" type="bus" depart="0.00" departLane="best" from="1163782197#2" to="-51691749#4">
        <stop edge="-51691749#4" parking="true" duration="10.00"/>
        <stop edge="1163782197#2" parking="true" duration="10.00"/>
        <stop edge="-51691749#4" parking="true" duration="10.00"/>
    </trip>
</routes>