<?xml version="1.0" ?>
<routes xmlns:xsi="http://www.w3.org/2001/XMLSchema-instance" xsi:noNamespaceSchemaLocation="http://sumo.dlr.de/xsd/routes_file.xsd">
  <vType id="public_moped" vClass="moped" maxSpeed="40"/>
  <trip id="xiaofang_moped_0_dongchong" type="public_moped" depart="34" departLane="best" from="-871617350#0" to="543863877#1">
    <stop edge="1163782197#2" parking="true" duration="0"/>
    <stop edge="543863877#1" parking="true" duration="0"/>
  </trip>
  <trip id="xiaofang_moped_1_dongchong" type="public_moped" depart="35" departLane="best" from="-871617350#0" to="543863877#1">
    <stop edge="1163782197#2" parking="true" duration="0"/>
    <stop edge="543863877#1" parking="true" duration="0"/>
  </trip>
  <trip id="xiaofang_moped_2_dongchong" type="public_moped" depart="36" departLane="best" from="-871617350#0" to="543863877#1">
    <stop edge="1163782197#2" parking="true" duration="0"/>
    <stop edge="543863877#1" parking="true" duration="0"/>
  </trip>
  <trip id="xiaofang_moped_3_dongchong" type="public_moped" depart="37" departLane="best" from="-871617350#0" to="543863877#1">
    <stop edge="1163782197#2" parking="true" duration="0"/>
    <stop edge="543863877#1" parking="true" duration="0"/>
  </trip>
  <trip id="xiaofang_moped_4_dongchong" type="public_moped" depart="38" departLane="best" from="-871617350#0" to="543863877#1">
    <stop edge="1163782197#2" parking="true" duration="0"/>
    <stop edge="543863877#1" parking="true" duration="0"/>
  </trip>
  <trip id="xiaofang_moped_0_beibi" type="public_moped" depart="39" departLane="best" from="-871617350#0" to="543863877#1">
    <stop edge="296185646#0" parking="true" duration="0"/>
    <stop edge="543863877#1" parking="true" duration="0"/>
    <stop edge="296185646#0" parking="true" duration="0"/>
    <stop edge="543863877#1" parking="true" duration="0"/>
    <stop edge="296185646#0" parking="true" duration="0"/>
    <stop edge="543863877#1" parking="true" duration="0"/>
    <stop edge="296185646#0" parking="true" duration="0"/>
    <stop edge="543863877#1" parking="true" duration="0"/>
    <stop edge="296185646#0" parking="true" duration="0"/>
    <stop edge="543863877#1" parking="true" duration="0"/>
  </trip>
  <trip id="xiaofang_moped_1_beibi" type="public_moped" depart="40" departLane="best" from="-871617350#0" to="543863877#1">
    <stop edge="296185646#0" parking="true" duration="0"/>
    <stop edge="543863877#1" parking="true" duration="0"/>
    <stop edge="296185646#0" parking="true" duration="0"/>
    <stop edge="543863877#1" parking="true" duration="0"/>
    <stop edge="296185646#0" parking="true" duration="0"/>
    <stop edge="543863877#1" parking="true" duration="0"/>
    <stop edge="296185646#0" parking="true" duration="0"/>
    <stop edge="543863877#1" parking="true" duration="0"/>
    <stop edge="296185646#0" parking="true" duration="0"/>
    <stop edge="543863877#1" parking="true" duration="0"/>
  </trip>
  <trip id="xiaofang_moped_2_beibi" type="public_moped" depart="41" departLane="best" from="-871617350#0" to="543863877#1">
    <stop edge="296185646#0" parking="true" duration="0"/>
    <stop edge="543863877#1" parking="true" duration="0"/>
    <stop edge="296185646#0" parking="true" duration="0"/>
    <stop edge="543863877#1" parking="true" duration="0"/>
    <stop edge="296185646#0" parking="true" duration="0"/>
    <stop edge="543863877#1" parking="true" duration="0"/>
    <stop edge="296185646#0" parking="true" duration="0"/>
    <stop edge="543863877#1" parking="true" duration="0"/>
    <stop edge="296185646#0" parking="true" duration="0"/>
    <stop edge="543863877#1" parking="true" duration="0"/>
  </trip>
  <trip id="xiaofang_moped_3_beibi" type="public_moped" depart="42" departLane="best" from="-871617350#0" to="543863877#1">
    <stop edge="296185646#0" parking="true" duration="0"/>
    <stop edge="543863877#1" parking="true" duration="0"/>
    <stop edge="296185646#0" parking="true" duration="0"/>
    <stop edge="543863877#1" parking="true" duration="0"/>
    <stop edge="296185646#0" parking="true" duration="0"/>
    <stop edge="543863877#1" parking="true" duration="0"/>
    <stop edge="296185646#0" parking="true" duration="0"/>
    <stop edge="543863877#1" parking="true" duration="0"/>
    <stop edge="296185646#0" parking="true" duration="0"/>
    <stop edge="543863877#1" parking="true" duration="0"/>
  </trip>
  <trip id="xiaofang_moped_4_beibi" type="public_moped" depart="43" departLane="best" from="-871617350#0" to="543863877#1">
    <stop edge="296185646#0" parking="true" duration="0"/>
    <stop edge="543863877#1" parking="true" duration="0"/>
    <stop edge="296185646#0" parking="true" duration="0"/>
    <stop edge="543863877#1" parking="true" duration="0"/>
    <stop edge="296185646#0" parking="true" duration="0"/>
    <stop edge="543863877#1" parking="true" duration="0"/>
    <stop edge="296185646#0" parking="true" duration="0"/>
    <stop edge="543863877#1" parking="true" duration="0"/>
    <stop edge="296185646#0" parking="true" duration="0"/>
    <stop edge="543863877#1" parking="true" duration="0"/>
  </trip>
  <trip id="xiaofang_moped_5_beibi" type="public_moped" depart="44" departLane="best" from="-871617350#0" to="543863877#1">
    <stop edge="296185646#0" parking="true" duration="0"/>
    <stop edge="543863877#1" parking="true" duration="0"/>
    <stop edge="296185646#0" parking="true" duration="0"/>
    <stop edge="543863877#1" parking="true" duration="0"/>
    <stop edge="296185646#0" parking="true" duration="0"/>
    <stop edge="543863877#1" parking="true" duration="0"/>
    <stop edge="296185646#0" parking="true" duration="0"/>
    <stop edge="543863877#1" parking="true" duration="0"/>
    <stop edge="296185646#0" parking="true" duration="0"/>
    <stop edge="543863877#1" parking="true" duration="0"/>
  </trip>
  <trip id="dianchang2_moped_0_beibi" type="public_moped" depart="45" departLane="best" from="1163782197#2" to="543863877#1">
    <stop edge="296185646#0" parking="true" duration="0"/>
    <stop edge="543863877#1" parking="true" duration="0"/>
    <stop edge="296185646#0" parking="true" duration="0"/>
    <stop edge="543863877#1" parking="true" duration="0"/>
    <stop edge="296185646#0" parking="true" duration="0"/>
    <stop edge="543863877#1" parking="true" duration="0"/>
    <stop edge="296185646#0" parking="true" duration="0"/>
    <stop edge="543863877#1" parking="true" duration="0"/>
    <stop edge="296185646#0" parking="true" duration="0"/>
    <stop edge="543863877#1" parking="true" duration="0"/>
  </trip>
  <trip id="dianchang2_moped_1_beibi" type="public_moped" depart="46" departLane="best" from="1163782197#2" to="543863877#1">
    <stop edge="296185646#0" parking="true" duration="0"/>
    <stop edge="543863877#1" parking="true" duration="0"/>
    <stop edge="296185646#0" parking="true" duration="0"/>
    <stop edge="543863877#1" parking="true" duration="0"/>
    <stop edge="296185646#0" parking="true" duration="0"/>
    <stop edge="543863877#1" parking="true" duration="0"/>
    <stop edge="296185646#0" parking="true" duration="0"/>
    <stop edge="543863877#1" parking="true" duration="0"/>
    <stop edge="296185646#0" parking="true" duration="0"/>
    <stop edge="543863877#1" parking="true" duration="0"/>
  </trip>
  <trip id="dianchang2_moped_2_beibi" type="public_moped" depart="47" departLane="best" from="1163782197#2" to="543863877#1">
    <stop edge="296185646#0" parking="true" duration="0"/>
    <stop edge="543863877#1" parking="true" duration="0"/>
    <stop edge="296185646#0" parking="true" duration="0"/>
    <stop edge="543863877#1" parking="true" duration="0"/>
    <stop edge="296185646#0" parking="true" duration="0"/>
    <stop edge="543863877#1" parking="true" duration="0"/>
    <stop edge="296185646#0" parking="true" duration="0"/>
    <stop edge="543863877#1" parking="true" duration="0"/>
    <stop edge="296185646#0" parking="true" duration="0"/>
    <stop edge="543863877#1" parking="true" duration="0"/>
  </trip>
  <trip id="dianchang2_moped_3_beibi" type="public_moped" depart="48" departLane="best" from="1163782197#2" to="543863877#1">
    <stop edge="296185646#0" parking="true" duration="0"/>
    <stop edge="543863877#1" parking="true" duration="0"/>
    <stop edge="296185646#0" parking="true" duration="0"/>
    <stop edge="543863877#1" parking="true" duration="0"/>
    <stop edge="296185646#0" parking="true" duration="0"/>
    <stop edge="543863877#1" parking="true" duration="0"/>
    <stop edge="296185646#0" parking="true" duration="0"/>
    <stop edge="543863877#1" parking="true" duration="0"/>
    <stop edge="296185646#0" parking="true" duration="0"/>
    <stop edge="543863877#1" parking="true" duration="0"/>
  </trip>
  <trip id="dianchang2_moped_4_beibi" type="public_moped" depart="49" departLane="best" from="1163782197#2" to="543863877#1">
    <stop edge="296185646#0" parking="true" duration="0"/>
    <stop edge="543863877#1" parking="true" duration="0"/>
    <stop edge="296185646#0" parking="true" duration="0"/>
    <stop edge="543863877#1" parking="true" duration="0"/>
    <stop edge="296185646#0" parking="true" duration="0"/>
    <stop edge="543863877#1" parking="true" duration="0"/>
    <stop edge="296185646#0" parking="true" duration="0"/>
    <stop edge="543863877#1" parking="true" duration="0"/>
    <stop edge="296185646#0" parking="true" duration="0"/>
    <stop edge="543863877#1" parking="true" duration="0"/>
  </trip>
  <trip id="dianchang2_moped_5_beibi" type="public_moped" depart="50" departLane="best" from="1163782197#2" to="543863877#1">
    <stop edge="296185646#0" parking="true" duration="0"/>
    <stop edge="543863877#1" parking="true" duration="0"/>
    <stop edge="296185646#0" parking="true" duration="0"/>
    <stop edge="543863877#1" parking="true" duration="0"/>
    <stop edge="296185646#0" parking="true" duration="0"/>
    <stop edge="543863877#1" parking="true" duration="0"/>
    <stop edge="296185646#0" parking="true" duration="0"/>
    <stop edge="543863877#1" parking="true" duration="0"/>
    <stop edge="296185646#0" parking="true" duration="0"/>
    <stop edge="543863877#1" parking="true" duration="0"/>
  </trip>
</routes>
