<?xml version="1.0" ?>
<routes xmlns:xsi="http://www.w3.org/2001/XMLSchema-instance" xsi:noNamespaceSchemaLocation="http://sumo.dlr.de/xsd/routes_file.xsd">
  <vType id="taxi" vClass="taxi" maxSpeed="80"/>
  <trip id="dongchong_taxi_0" type="taxi" depart="10" departLane="best" from="1163782197#2" to="977360507#0">
    <stop edge="977360507#0" parking="true" duration="0"/>
  </trip>
  <trip id="dongchong_taxi_1" type="taxi" depart="11" departLane="best" from="1163782197#2" to="977360507#0">
    <stop edge="977360507#0" parking="true" duration="0"/>
  </trip>
  <trip id="dongchong_taxi_2" type="taxi" depart="12" departLane="best" from="1163782197#2" to="977360507#0">
    <stop edge="977360507#0" parking="true" duration="0"/>
  </trip>
  <trip id="dongchong_taxi_3" type="taxi" depart="13" departLane="best" from="1163782197#2" to="977360507#0">
    <stop edge="977360507#0" parking="true" duration="0"/>
  </trip>
  <trip id="dongchong_taxi_4" type="taxi" depart="14" departLane="best" from="1163782197#2" to="977360507#0">
    <stop edge="977360507#0" parking="true" duration="0"/>
  </trip>
  <trip id="dongchong_taxi_5" type="taxi" depart="15" departLane="best" from="1163782197#2" to="977360507#0">
    <stop edge="977360507#0" parking="true" duration="0"/>
  </trip>
  <trip id="dongchong_taxi_6" type="taxi" depart="16" departLane="best" from="1163782197#2" to="977360507#0">
    <stop edge="977360507#0" parking="true" duration="0"/>
  </trip>
  <trip id="dongchong_taxi_7" type="taxi" depart="17" departLane="best" from="1163782197#2" to="977360507#0">
    <stop edge="977360507#0" parking="true" duration="0"/>
  </trip>
  <trip id="dongchong_taxi_8" type="taxi" depart="18" departLane="best" from="1163782197#2" to="977360507#0">
    <stop edge="977360507#0" parking="true" duration="0"/>
  </trip>
  <trip id="dongchong_taxi_9" type="taxi" depart="19" departLane="best" from="1163782197#2" to="977360507#0">
    <stop edge="977360507#0" parking="true" duration="0"/>
  </trip>
  <trip id="dongchong_taxi_10" type="taxi" depart="20" departLane="best" from="1163782197#2" to="977360507#0">
    <stop edge="977360507#0" parking="true" duration="0"/>
  </trip>
  <trip id="dongchong_taxi_11" type="taxi" depart="21" departLane="best" from="1163782197#2" to="977360507#0">
    <stop edge="977360507#0" parking="true" duration="0"/>
  </trip>
  <trip id="dongchong_taxi_12" type="taxi" depart="22" departLane="best" from="1163782197#2" to="977360507#0">
    <stop edge="977360507#0" parking="true" duration="0"/>
  </trip>
  <trip id="dongchong_taxi_13" type="taxi" depart="23" departLane="best" from="1163782197#2" to="977360507#0">
    <stop edge="977360507#0" parking="true" duration="0"/>
  </trip>
  <trip id="dongchong_taxi_14" type="taxi" depart="24" departLane="best" from="1163782197#2" to="977360507#0">
    <stop edge="977360507#0" parking="true" duration="0"/>
  </trip>
  <trip id="dongchong_taxi_15" type="taxi" depart="25" departLane="best" from="1163782197#2" to="977360507#0">
    <stop edge="977360507#0" parking="true" duration="0"/>
  </trip>
  <trip id="dongchong_taxi_16" type="taxi" depart="26" departLane="best" from="1163782197#2" to="977360507#0">
    <stop edge="977360507#0" parking="true" duration="0"/>
  </trip>
  <trip id="dongchong_taxi_17" type="taxi" depart="27" departLane="best" from="1163782197#2" to="977360507#0">
    <stop edge="977360507#0" parking="true" duration="0"/>
  </trip>
  <trip id="dongchong_taxi_18" type="taxi" depart="28" departLane="best" from="1163782197#2" to="977360507#0">
    <stop edge="977360507#0" parking="true" duration="0"/>
  </trip>
  <trip id="dongchong_taxi_19" type="taxi" depart="29" departLane="best" from="1163782197#2" to="977360507#0">
    <stop edge="977360507#0" parking="true" duration="0"/>
  </trip>
  <trip id="dongchong_taxi_20" type="taxi" depart="30" departLane="best" from="1163782197#2" to="977360507#0">
    <stop edge="977360507#0" parking="true" duration="0"/>
  </trip>
  <trip id="dongchong_taxi_21" type="taxi" depart="31" departLane="best" from="1163782197#2" to="977360507#0">
    <stop edge="977360507#0" parking="true" duration="0"/>
  </trip>
  <trip id="dongchong_taxi_22" type="taxi" depart="32" departLane="best" from="1163782197#2" to="977360507#0">
    <stop edge="977360507#0" parking="true" duration="0"/>
  </trip>
  <trip id="dongchong_taxi_23" type="taxi" depart="33" departLane="best" from="1163782197#2" to="977360507#0">
    <stop edge="977360507#0" parking="true" duration="0"/>
  </trip>
  <trip id="dongchong_taxi_24" type="taxi" depart="34" departLane="best" from="1163782197#2" to="977360507#0">
    <stop edge="977360507#0" parking="true" duration="0"/>
  </trip>
  <trip id="dongchong_taxi_25" type="taxi" depart="35" departLane="best" from="1163782197#2" to="977360507#0">
    <stop edge="977360507#0" parking="true" duration="0"/>
  </trip>
  <trip id="dongchong_taxi_26" type="taxi" depart="36" departLane="best" from="1163782197#2" to="977360507#0">
    <stop edge="977360507#0" parking="true" duration="0"/>
  </trip>
  <trip id="dongchong_taxi_27" type="taxi" depart="37" departLane="best" from="1163782197#2" to="977360507#0">
    <stop edge="977360507#0" parking="true" duration="0"/>
  </trip>
  <trip id="dongchong_taxi_28" type="taxi" depart="38" departLane="best" from="1163782197#2" to="977360507#0">
    <stop edge="977360507#0" parking="true" duration="0"/>
  </trip>
  <trip id="dongchong_taxi_29" type="taxi" depart="39" departLane="best" from="1163782197#2" to="977360507#0">
    <stop edge="977360507#0" parking="true" duration="0"/>
  </trip>
  <trip id="dongchong_taxi_30" type="taxi" depart="40" departLane="best" from="1163782197#2" to="977360507#0">
    <stop edge="977360507#0" parking="true" duration="0"/>
  </trip>
  <trip id="dongchong_taxi_31" type="taxi" depart="41" departLane="best" from="1163782197#2" to="977360507#0">
    <stop edge="977360507#0" parking="true" duration="0"/>
  </trip>
  <trip id="dongchong_taxi_32" type="taxi" depart="42" departLane="best" from="1163782197#2" to="977360507#0">
    <stop edge="977360507#0" parking="true" duration="0"/>
  </trip>
  <trip id="dongchong_taxi_33" type="taxi" depart="43" departLane="best" from="1163782197#2" to="977360507#0">
    <stop edge="977360507#0" parking="true" duration="0"/>
  </trip>
  <trip id="dongchong_taxi_34" type="taxi" depart="44" departLane="best" from="1163782197#2" to="977360507#0">
    <stop edge="977360507#0" parking="true" duration="0"/>
  </trip>
  <trip id="dongchong_taxi_35" type="taxi" depart="45" departLane="best" from="1163782197#2" to="977360507#0">
    <stop edge="977360507#0" parking="true" duration="0"/>
  </trip>
  <trip id="dongchong_taxi_36" type="taxi" depart="46" departLane="best" from="1163782197#2" to="977360507#0">
    <stop edge="977360507#0" parking="true" duration="0"/>
  </trip>
  <trip id="dongchong_taxi_37" type="taxi" depart="47" departLane="best" from="1163782197#2" to="977360507#0">
    <stop edge="977360507#0" parking="true" duration="0"/>
  </trip>
  <trip id="dongchong_taxi_38" type="taxi" depart="48" departLane="best" from="1163782197#2" to="977360507#0">
    <stop edge="977360507#0" parking="true" duration="0"/>
  </trip>
  <trip id="dongchong_taxi_39" type="taxi" depart="49" departLane="best" from="1163782197#2" to="977360507#0">
    <stop edge="977360507#0" parking="true" duration="0"/>
  </trip>
  <trip id="dongchong_taxi_40" type="taxi" depart="50" departLane="best" from="1163782197#2" to="977360507#0">
    <stop edge="977360507#0" parking="true" duration="0"/>
  </trip>
  <trip id="dongchong_taxi_41" type="taxi" depart="51" departLane="best" from="1163782197#2" to="977360507#0">
    <stop edge="977360507#0" parking="true" duration="0"/>
  </trip>
  <trip id="dongchong_taxi_42" type="taxi" depart="52" departLane="best" from="1163782197#2" to="977360507#0">
    <stop edge="977360507#0" parking="true" duration="0"/>
  </trip>
  <trip id="dongchong_taxi_43" type="taxi" depart="53" departLane="best" from="1163782197#2" to="977360507#0">
    <stop edge="977360507#0" parking="true" duration="0"/>
  </trip>
  <trip id="dongchong_taxi_44" type="taxi" depart="54" departLane="best" from="1163782197#2" to="977360507#0">
    <stop edge="977360507#0" parking="true" duration="0"/>
  </trip>
  <trip id="dongchong_taxi_45" type="taxi" depart="55" departLane="best" from="1163782197#2" to="977360507#0">
    <stop edge="977360507#0" parking="true" duration="0"/>
  </trip>
  <trip id="dongchong_taxi_46" type="taxi" depart="56" departLane="best" from="1163782197#2" to="977360507#0">
    <stop edge="977360507#0" parking="true" duration="0"/>
  </trip>
  <trip id="dongchong_taxi_47" type="taxi" depart="57" departLane="best" from="1163782197#2" to="977360507#0">
    <stop edge="977360507#0" parking="true" duration="0"/>
  </trip>
  <trip id="dongchong_taxi_48" type="taxi" depart="58" departLane="best" from="1163782197#2" to="977360507#0">
    <stop edge="977360507#0" parking="true" duration="0"/>
  </trip>
  <trip id="dongchong_taxi_49" type="taxi" depart="59" departLane="best" from="1163782197#2" to="977360507#0">
    <stop edge="977360507#0" parking="true" duration="0"/>
  </trip>
  <trip id="dongchong_taxi_50" type="taxi" depart="60" departLane="best" from="1163782197#2" to="977360507#0">
    <stop edge="977360507#0" parking="true" duration="0"/>
  </trip>
  <trip id="dongchong_taxi_51" type="taxi" depart="61" departLane="best" from="1163782197#2" to="977360507#0">
    <stop edge="977360507#0" parking="true" duration="0"/>
  </trip>
  <trip id="dongchong_taxi_52" type="taxi" depart="62" departLane="best" from="1163782197#2" to="977360507#0">
    <stop edge="977360507#0" parking="true" duration="0"/>
  </trip>
  <trip id="dongchong_taxi_53" type="taxi" depart="63" departLane="best" from="1163782197#2" to="977360507#0">
    <stop edge="977360507#0" parking="true" duration="0"/>
  </trip>
  <trip id="dongchong_taxi_54" type="taxi" depart="64" departLane="best" from="1163782197#2" to="977360507#0">
    <stop edge="977360507#0" parking="true" duration="0"/>
  </trip>
  <trip id="dongchong_taxi_55" type="taxi" depart="65" departLane="best" from="1163782197#2" to="977360507#0">
    <stop edge="977360507#0" parking="true" duration="0"/>
  </trip>
  <trip id="dongchong_taxi_56" type="taxi" depart="66" departLane="best" from="1163782197#2" to="977360507#0">
    <stop edge="977360507#0" parking="true" duration="0"/>
  </trip>
  <trip id="dongchong_taxi_57" type="taxi" depart="67" departLane="best" from="1163782197#2" to="977360507#0">
    <stop edge="977360507#0" parking="true" duration="0"/>
  </trip>
  <trip id="dongchong_taxi_58" type="taxi" depart="68" departLane="best" from="1163782197#2" to="977360507#0">
    <stop edge="977360507#0" parking="true" duration="0"/>
  </trip>
  <trip id="dongchong_taxi_59" type="taxi" depart="69" departLane="best" from="1163782197#2" to="977360507#0">
    <stop edge="977360507#0" parking="true" duration="0"/>
  </trip>
  <trip id="dongchong_taxi_60" type="taxi" depart="70" departLane="best" from="1163782197#2" to="977360507#0">
    <stop edge="977360507#0" parking="true" duration="0"/>
  </trip>
  <trip id="dongchong_taxi_61" type="taxi" depart="71" departLane="best" from="1163782197#2" to="977360507#0">
    <stop edge="977360507#0" parking="true" duration="0"/>
  </trip>
  <trip id="dongchong_taxi_62" type="taxi" depart="72" departLane="best" from="1163782197#2" to="977360507#0">
    <stop edge="977360507#0" parking="true" duration="0"/>
  </trip>
  <trip id="dongchong_taxi_63" type="taxi" depart="73" departLane="best" from="1163782197#2" to="977360507#0">
    <stop edge="977360507#0" parking="true" duration="0"/>
  </trip>
  <trip id="dongchong_taxi_64" type="taxi" depart="74" departLane="best" from="1163782197#2" to="977360507#0">
    <stop edge="977360507#0" parking="true" duration="0"/>
  </trip>
  <trip id="dongchong_taxi_65" type="taxi" depart="75" departLane="best" from="1163782197#2" to="977360507#0">
    <stop edge="977360507#0" parking="true" duration="0"/>
  </trip>
  <trip id="dongchong_taxi_66" type="taxi" depart="76" departLane="best" from="1163782197#2" to="977360507#0">
    <stop edge="977360507#0" parking="true" duration="0"/>
  </trip>
  <trip id="dongchong_taxi_67" type="taxi" depart="77" departLane="best" from="1163782197#2" to="977360507#0">
    <stop edge="977360507#0" parking="true" duration="0"/>
  </trip>
  <trip id="dongchong_taxi_68" type="taxi" depart="78" departLane="best" from="1163782197#2" to="977360507#0">
    <stop edge="977360507#0" parking="true" duration="0"/>
  </trip>
  <trip id="dongchong_taxi_69" type="taxi" depart="79" departLane="best" from="1163782197#2" to="977360507#0">
    <stop edge="977360507#0" parking="true" duration="0"/>
  </trip>
  <trip id="dongchong_taxi_70" type="taxi" depart="80" departLane="best" from="1163782197#2" to="977360507#0">
    <stop edge="977360507#0" parking="true" duration="0"/>
  </trip>
  <trip id="dongchong_taxi_71" type="taxi" depart="81" departLane="best" from="1163782197#2" to="977360507#0">
    <stop edge="977360507#0" parking="true" duration="0"/>
  </trip>
  <trip id="dongchong_taxi_72" type="taxi" depart="82" departLane="best" from="1163782197#2" to="977360507#0">
    <stop edge="977360507#0" parking="true" duration="0"/>
  </trip>
  <trip id="dongchong_taxi_73" type="taxi" depart="83" departLane="best" from="1163782197#2" to="977360507#0">
    <stop edge="977360507#0" parking="true" duration="0"/>
  </trip>
  <trip id="dongchong_taxi_74" type="taxi" depart="84" departLane="best" from="1163782197#2" to="977360507#0">
    <stop edge="977360507#0" parking="true" duration="0"/>
  </trip>
  <trip id="dongchong_taxi_75" type="taxi" depart="85" departLane="best" from="1163782197#2" to="977360507#0">
    <stop edge="977360507#0" parking="true" duration="0"/>
  </trip>
  <trip id="dongchong_taxi_76" type="taxi" depart="86" departLane="best" from="1163782197#2" to="977360507#0">
    <stop edge="977360507#0" parking="true" duration="0"/>
  </trip>
  <trip id="dongchong_taxi_77" type="taxi" depart="87" departLane="best" from="1163782197#2" to="977360507#0">
    <stop edge="977360507#0" parking="true" duration="0"/>
  </trip>
  <trip id="dongchong_taxi_78" type="taxi" depart="88" departLane="best" from="1163782197#2" to="977360507#0">
    <stop edge="977360507#0" parking="true" duration="0"/>
  </trip>
  <trip id="dongchong_taxi_79" type="taxi" depart="89" departLane="best" from="1163782197#2" to="977360507#0">
    <stop edge="977360507#0" parking="true" duration="0"/>
  </trip>
  <trip id="beibi_taxi_0" type="taxi" depart="100" departLane="best" from="296185646#0" to="-51691749#4">
    <stop edge="-51691749#4" parking="true" duration="0"/>
  </trip>
  <trip id="beibi_taxi_1" type="taxi" depart="101" departLane="best" from="296185646#0" to="-51691749#4">
    <stop edge="-51691749#4" parking="true" duration="0"/>
  </trip>
  <trip id="beibi_taxi_2" type="taxi" depart="102" departLane="best" from="296185646#0" to="-51691749#4">
    <stop edge="-51691749#4" parking="true" duration="0"/>
  </trip>
  <trip id="beibi_taxi_3" type="taxi" depart="103" departLane="best" from="296185646#0" to="-51691749#4">
    <stop edge="-51691749#4" parking="true" duration="0"/>
  </trip>
  <trip id="beibi_taxi_4" type="taxi" depart="104" departLane="best" from="296185646#0" to="-51691749#4">
    <stop edge="-51691749#4" parking="true" duration="0"/>
  </trip>
  <trip id="beibi_taxi_5" type="taxi" depart="105" departLane="best" from="296185646#0" to="-51691749#4">
    <stop edge="-51691749#4" parking="true" duration="0"/>
  </trip>
  <trip id="beibi_taxi_6" type="taxi" depart="106" departLane="best" from="296185646#0" to="-51691749#4">
    <stop edge="-51691749#4" parking="true" duration="0"/>
  </trip>
  <trip id="beibi_taxi_7" type="taxi" depart="107" departLane="best" from="296185646#0" to="-51691749#4">
    <stop edge="-51691749#4" parking="true" duration="0"/>
  </trip>
  <trip id="beibi_taxi_8" type="taxi" depart="108" departLane="best" from="296185646#0" to="-51691749#4">
    <stop edge="-51691749#4" parking="true" duration="0"/>
  </trip>
  <trip id="beibi_taxi_9" type="taxi" depart="109" departLane="best" from="296185646#0" to="-51691749#4">
    <stop edge="-51691749#4" parking="true" duration="0"/>
  </trip>
  <trip id="beibi_taxi_10" type="taxi" depart="110" departLane="best" from="296185646#0" to="-51691749#4">
    <stop edge="-51691749#4" parking="true" duration="0"/>
  </trip>
  <trip id="beibi_taxi_11" type="taxi" depart="111" departLane="best" from="296185646#0" to="-51691749#4">
    <stop edge="-51691749#4" parking="true" duration="0"/>
  </trip>
  <trip id="beibi_taxi_12" type="taxi" depart="112" departLane="best" from="296185646#0" to="-51691749#4">
    <stop edge="-51691749#4" parking="true" duration="0"/>
  </trip>
  <trip id="beibi_taxi_13" type="taxi" depart="113" departLane="best" from="296185646#0" to="-51691749#4">
    <stop edge="-51691749#4" parking="true" duration="0"/>
  </trip>
  <trip id="beibi_taxi_14" type="taxi" depart="114" departLane="best" from="296185646#0" to="-51691749#4">
    <stop edge="-51691749#4" parking="true" duration="0"/>
  </trip>
  <trip id="beibi_taxi_15" type="taxi" depart="115" departLane="best" from="296185646#0" to="-51691749#4">
    <stop edge="-51691749#4" parking="true" duration="0"/>
  </trip>
  <trip id="beibi_taxi_16" type="taxi" depart="116" departLane="best" from="296185646#0" to="-51691749#4">
    <stop edge="-51691749#4" parking="true" duration="0"/>
  </trip>
  <trip id="beibi_taxi_17" type="taxi" depart="117" departLane="best" from="296185646#0" to="-51691749#4">
    <stop edge="-51691749#4" parking="true" duration="0"/>
  </trip>
  <trip id="beibi_taxi_18" type="taxi" depart="118" departLane="best" from="296185646#0" to="-51691749#4">
    <stop edge="-51691749#4" parking="true" duration="0"/>
  </trip>
  <trip id="beibi_taxi_19" type="taxi" depart="119" departLane="best" from="296185646#0" to="-51691749#4">
    <stop edge="-51691749#4" parking="true" duration="0"/>
  </trip>
  <trip id="beibi_taxi_20" type="taxi" depart="120" departLane="best" from="296185646#0" to="-51691749#4">
    <stop edge="-51691749#4" parking="true" duration="0"/>
  </trip>
  <trip id="beibi_taxi_21" type="taxi" depart="121" departLane="best" from="296185646#0" to="-51691749#4">
    <stop edge="-51691749#4" parking="true" duration="0"/>
  </trip>
  <trip id="beibi_taxi_22" type="taxi" depart="122" departLane="best" from="296185646#0" to="-51691749#4">
    <stop edge="-51691749#4" parking="true" duration="0"/>
  </trip>
  <trip id="beibi_taxi_23" type="taxi" depart="123" departLane="best" from="296185646#0" to="-51691749#4">
    <stop edge="-51691749#4" parking="true" duration="0"/>
  </trip>
  <trip id="beibi_taxi_24" type="taxi" depart="124" departLane="best" from="296185646#0" to="-51691749#4">
    <stop edge="-51691749#4" parking="true" duration="0"/>
  </trip>
  <trip id="beibi_taxi_25" type="taxi" depart="125" departLane="best" from="296185646#0" to="-51691749#4">
    <stop edge="-51691749#4" parking="true" duration="0"/>
  </trip>
  <trip id="beibi_taxi_26" type="taxi" depart="126" departLane="best" from="296185646#0" to="-51691749#4">
    <stop edge="-51691749#4" parking="true" duration="0"/>
  </trip>
  <trip id="beibi_taxi_27" type="taxi" depart="127" departLane="best" from="296185646#0" to="-51691749#4">
    <stop edge="-51691749#4" parking="true" duration="0"/>
  </trip>
  <trip id="beibi_taxi_28" type="taxi" depart="128" departLane="best" from="296185646#0" to="-51691749#4">
    <stop edge="-51691749#4" parking="true" duration="0"/>
  </trip>
  <trip id="beibi_taxi_29" type="taxi" depart="129" departLane="best" from="296185646#0" to="-51691749#4">
    <stop edge="-51691749#4" parking="true" duration="0"/>
  </trip>
  <trip id="beibi_taxi_30" type="taxi" depart="130" departLane="best" from="296185646#0" to="-51691749#4">
    <stop edge="-51691749#4" parking="true" duration="0"/>
  </trip>
  <trip id="beibi_taxi_31" type="taxi" depart="131" departLane="best" from="296185646#0" to="-51691749#4">
    <stop edge="-51691749#4" parking="true" duration="0"/>
  </trip>
  <trip id="beibi_taxi_32" type="taxi" depart="132" departLane="best" from="296185646#0" to="-51691749#4">
    <stop edge="-51691749#4" parking="true" duration="0"/>
  </trip>
  <trip id="beibi_taxi_33" type="taxi" depart="133" departLane="best" from="296185646#0" to="-51691749#4">
    <stop edge="-51691749#4" parking="true" duration="0"/>
  </trip>
  <trip id="beibi_taxi_34" type="taxi" depart="134" departLane="best" from="296185646#0" to="-51691749#4">
    <stop edge="-51691749#4" parking="true" duration="0"/>
  </trip>
  <trip id="beibi_taxi_35" type="taxi" depart="135" departLane="best" from="296185646#0" to="-51691749#4">
    <stop edge="-51691749#4" parking="true" duration="0"/>
  </trip>
  <trip id="beibi_taxi_36" type="taxi" depart="136" departLane="best" from="296185646#0" to="-51691749#4">
    <stop edge="-51691749#4" parking="true" duration="0"/>
  </trip>
  <trip id="beibi_taxi_37" type="taxi" depart="137" departLane="best" from="296185646#0" to="-51691749#4">
    <stop edge="-51691749#4" parking="true" duration="0"/>
  </trip>
  <trip id="beibi_taxi_38" type="taxi" depart="138" departLane="best" from="296185646#0" to="-51691749#4">
    <stop edge="-51691749#4" parking="true" duration="0"/>
  </trip>
  <trip id="beibi_taxi_39" type="taxi" depart="139" departLane="best" from="296185646#0" to="-51691749#4">
    <stop edge="-51691749#4" parking="true" duration="0"/>
  </trip>
  <trip id="beibi_taxi_40" type="taxi" depart="140" departLane="best" from="296185646#0" to="-51691749#4">
    <stop edge="-51691749#4" parking="true" duration="0"/>
  </trip>
  <trip id="beibi_taxi_41" type="taxi" depart="141" departLane="best" from="296185646#0" to="-51691749#4">
    <stop edge="-51691749#4" parking="true" duration="0"/>
  </trip>
  <trip id="beibi_taxi_42" type="taxi" depart="142" departLane="best" from="296185646#0" to="-51691749#4">
    <stop edge="-51691749#4" parking="true" duration="0"/>
  </trip>
  <trip id="beibi_taxi_43" type="taxi" depart="143" departLane="best" from="296185646#0" to="-51691749#4">
    <stop edge="-51691749#4" parking="true" duration="0"/>
  </trip>
  <trip id="beibi_taxi_44" type="taxi" depart="144" departLane="best" from="296185646#0" to="-51691749#4">
    <stop edge="-51691749#4" parking="true" duration="0"/>
  </trip>
  <trip id="beibi_taxi_45" type="taxi" depart="145" departLane="best" from="296185646#0" to="-51691749#4">
    <stop edge="-51691749#4" parking="true" duration="0"/>
  </trip>
  <trip id="beibi_taxi_46" type="taxi" depart="146" departLane="best" from="296185646#0" to="-51691749#4">
    <stop edge="-51691749#4" parking="true" duration="0"/>
  </trip>
  <trip id="beibi_taxi_47" type="taxi" depart="147" departLane="best" from="296185646#0" to="-51691749#4">
    <stop edge="-51691749#4" parking="true" duration="0"/>
  </trip>
  <trip id="beibi_taxi_48" type="taxi" depart="148" departLane="best" from="296185646#0" to="-51691749#4">
    <stop edge="-51691749#4" parking="true" duration="0"/>
  </trip>
  <trip id="beibi_taxi_49" type="taxi" depart="149" departLane="best" from="296185646#0" to="-51691749#4">
    <stop edge="-51691749#4" parking="true" duration="0"/>
  </trip>
  <trip id="beibi_taxi_50" type="taxi" depart="150" departLane="best" from="296185646#0" to="-51691749#4">
    <stop edge="-51691749#4" parking="true" duration="0"/>
  </trip>
  <trip id="beibi_taxi_51" type="taxi" depart="151" departLane="best" from="296185646#0" to="-51691749#4">
    <stop edge="-51691749#4" parking="true" duration="0"/>
  </trip>
  <trip id="beibi_taxi_52" type="taxi" depart="152" departLane="best" from="296185646#0" to="-51691749#4">
    <stop edge="-51691749#4" parking="true" duration="0"/>
  </trip>
  <trip id="beibi_taxi_53" type="taxi" depart="153" departLane="best" from="296185646#0" to="-51691749#4">
    <stop edge="-51691749#4" parking="true" duration="0"/>
  </trip>
  <trip id="beibi_taxi_54" type="taxi" depart="154" departLane="best" from="296185646#0" to="-51691749#4">
    <stop edge="-51691749#4" parking="true" duration="0"/>
  </trip>
  <trip id="beibi_taxi_55" type="taxi" depart="155" departLane="best" from="296185646#0" to="-51691749#4">
    <stop edge="-51691749#4" parking="true" duration="0"/>
  </trip>
  <trip id="beibi_taxi_56" type="taxi" depart="156" departLane="best" from="296185646#0" to="-51691749#4">
    <stop edge="-51691749#4" parking="true" duration="0"/>
  </trip>
  <trip id="beibi_taxi_57" type="taxi" depart="157" departLane="best" from="296185646#0" to="-51691749#4">
    <stop edge="-51691749#4" parking="true" duration="0"/>
  </trip>
  <trip id="beibi_taxi_58" type="taxi" depart="158" departLane="best" from="296185646#0" to="-51691749#4">
    <stop edge="-51691749#4" parking="true" duration="0"/>
  </trip>
  <trip id="beibi_taxi_59" type="taxi" depart="159" departLane="best" from="296185646#0" to="-51691749#4">
    <stop edge="-51691749#4" parking="true" duration="0"/>
  </trip>
  <trip id="beibi_taxi_60" type="taxi" depart="160" departLane="best" from="296185646#0" to="-51691749#4">
    <stop edge="-51691749#4" parking="true" duration="0"/>
  </trip>
  <trip id="beibi_taxi_61" type="taxi" depart="161" departLane="best" from="296185646#0" to="-51691749#4">
    <stop edge="-51691749#4" parking="true" duration="0"/>
  </trip>
  <trip id="beibi_taxi_62" type="taxi" depart="162" departLane="best" from="296185646#0" to="-51691749#4">
    <stop edge="-51691749#4" parking="true" duration="0"/>
  </trip>
  <trip id="beibi_taxi_63" type="taxi" depart="163" departLane="best" from="296185646#0" to="-51691749#4">
    <stop edge="-51691749#4" parking="true" duration="0"/>
  </trip>
  <trip id="beibi_taxi_64" type="taxi" depart="164" departLane="best" from="296185646#0" to="-51691749#4">
    <stop edge="-51691749#4" parking="true" duration="0"/>
  </trip>
  <trip id="beibi_taxi_65" type="taxi" depart="165" departLane="best" from="296185646#0" to="-51691749#4">
    <stop edge="-51691749#4" parking="true" duration="0"/>
  </trip>
  <trip id="beibi_taxi_66" type="taxi" depart="166" departLane="best" from="296185646#0" to="-51691749#4">
    <stop edge="-51691749#4" parking="true" duration="0"/>
  </trip>
  <trip id="beibi_taxi_67" type="taxi" depart="167" departLane="best" from="296185646#0" to="-51691749#4">
    <stop edge="-51691749#4" parking="true" duration="0"/>
  </trip>
  <trip id="beibi_taxi_68" type="taxi" depart="168" departLane="best" from="296185646#0" to="-51691749#4">
    <stop edge="-51691749#4" parking="true" duration="0"/>
  </trip>
  <trip id="beibi_taxi_69" type="taxi" depart="169" departLane="best" from="296185646#0" to="-51691749#4">
    <stop edge="-51691749#4" parking="true" duration="0"/>
  </trip>
  <trip id="beibi_taxi_70" type="taxi" depart="170" departLane="best" from="296185646#0" to="-51691749#4">
    <stop edge="-51691749#4" parking="true" duration="0"/>
  </trip>
  <trip id="beibi_taxi_71" type="taxi" depart="171" departLane="best" from="296185646#0" to="-51691749#4">
    <stop edge="-51691749#4" parking="true" duration="0"/>
  </trip>
  <trip id="beibi_taxi_72" type="taxi" depart="172" departLane="best" from="296185646#0" to="-51691749#4">
    <stop edge="-51691749#4" parking="true" duration="0"/>
  </trip>
  <trip id="beibi_taxi_73" type="taxi" depart="173" departLane="best" from="296185646#0" to="-51691749#4">
    <stop edge="-51691749#4" parking="true" duration="0"/>
  </trip>
  <trip id="beibi_taxi_74" type="taxi" depart="174" departLane="best" from="296185646#0" to="-51691749#4">
    <stop edge="-51691749#4" parking="true" duration="0"/>
  </trip>
  <trip id="beibi_taxi_75" type="taxi" depart="175" departLane="best" from="296185646#0" to="-51691749#4">
    <stop edge="-51691749#4" parking="true" duration="0"/>
  </trip>
  <trip id="beibi_taxi_76" type="taxi" depart="176" departLane="best" from="296185646#0" to="-51691749#4">
    <stop edge="-51691749#4" parking="true" duration="0"/>
  </trip>
  <trip id="beibi_taxi_77" type="taxi" depart="177" departLane="best" from="296185646#0" to="-51691749#4">
    <stop edge="-51691749#4" parking="true" duration="0"/>
  </trip>
  <trip id="beibi_taxi_78" type="taxi" depart="178" departLane="best" from="296185646#0" to="-51691749#4">
    <stop edge="-51691749#4" parking="true" duration="0"/>
  </trip>
  <trip id="beibi_taxi_79" type="taxi" depart="179" departLane="best" from="296185646#0" to="-51691749#4">
    <stop edge="-51691749#4" parking="true" duration="0"/>
  </trip>
  <trip id="beigang_taxi_0" type="taxi" depart="190" departLane="best" from="1068471749#0" to="715792677">
    <stop edge="715792677" parking="true" duration="0"/>
  </trip>
  <trip id="beigang_taxi_1" type="taxi" depart="191" departLane="best" from="1068471749#0" to="715792677">
    <stop edge="715792677" parking="true" duration="0"/>
  </trip>
  <trip id="beigang_taxi_2" type="taxi" depart="192" departLane="best" from="1068471749#0" to="715792677">
    <stop edge="715792677" parking="true" duration="0"/>
  </trip>
  <trip id="beigang_taxi_3" type="taxi" depart="193" departLane="best" from="1068471749#0" to="715792677">
    <stop edge="715792677" parking="true" duration="0"/>
  </trip>
  <trip id="beigang_taxi_4" type="taxi" depart="194" departLane="best" from="1068471749#0" to="715792677">
    <stop edge="715792677" parking="true" duration="0"/>
  </trip>
  <trip id="beigang_taxi_5" type="taxi" depart="195" departLane="best" from="1068471749#0" to="715792677">
    <stop edge="715792677" parking="true" duration="0"/>
  </trip>
  <trip id="beigang_taxi_6" type="taxi" depart="196" departLane="best" from="1068471749#0" to="715792677">
    <stop edge="715792677" parking="true" duration="0"/>
  </trip>
  <trip id="beigang_taxi_7" type="taxi" depart="197" departLane="best" from="1068471749#0" to="715792677">