<?xml version="1.0" ?>
<routes xmlns:xsi="http://www.w3.org/2001/XMLSchema-instance" xsi:noNamespaceSchemaLocation="http://sumo.dlr.de/xsd/routes_file.xsd">
  <vType id="public_taxi" vClass="taxi" maxSpeed="80"/>
  <trip id="xiaofang_taxi_0_dongchong" type="public_taxi" depart="62" departLane="best" from="-871617350#0" to="543863877#1">
    <stop edge="1163782197#2" parking="true" duration="0"/>
    <stop edge="543863877#1" parking="true" duration="0"/>
  </trip>
  <trip id="xiaofang_taxi_1_dongchong" type="public_taxi" depart="63" departLane="best" from="-871617350#0" to="543863877#1">
    <stop edge="1163782197#2" parking="true" duration="0"/>
    <stop edge="543863877#1" parking="true" duration="0"/>
  </trip>
  <trip id="xiaofang_taxi_2_dongchong" type="public_taxi" depart="64" departLane="best" from="-871617350#0" to="543863877#1">
    <stop edge="1163782197#2" parking="true" duration="0"/>
    <stop edge="543863877#1" parking="true" duration="0"/>
  </trip>
  <trip id="xiaofang_taxi_3_dongchong" type="public_taxi" depart="65" departLane="best" from="-871617350#0" to="543863877#1">
    <stop edge="1163782197#2" parking="true" duration="0"/>
    <stop edge="543863877#1" parking="true" duration="0"/>
  </trip>
  <trip id="xiaofang_taxi_4_dongchong" type="public_taxi" depart="66" departLane="best" from="-871617350#0" to="543863877#1">
    <stop edge="1163782197#2" parking="true" duration="0"/>
    <stop edge="543863877#1" parking="true" duration="0"/>
  </trip>
  <trip id="xiaofang_taxi_5_dongchong" type="public_taxi" depart="67" departLane="best" from="-871617350#0" to="543863877#1">
    <stop edge="1163782197#2" parking="true" duration="0"/>
    <stop edge="543863877#1" parking="true" duration="0"/>
  </trip>
  <trip id="dianchang_taxi_0_dongchong" type="public_taxi" depart="68" departLane="best" from="-978658158#4" to="-51691749#4">
    <stop edge="1163782197#2" parking="true" duration="0"/>
    <stop edge="-51691749#4" parking="true" duration="0"/>
  </trip>
  <trip id="dianchang_taxi_1_dongchong" type="public_taxi" depart="69" departLane="best" from="-978658158#4" to="-51691749#4">
    <stop edge="1163782197#2" parking="true" duration="0"/>
    <stop edge="-51691749#4" parking="true" duration="0"/>
  </trip>
  <trip id="dianchang_taxi_2_dongchong" type="public_taxi" depart="70" departLane="best" from="-978658158#4" to="-51691749#4">
    <stop edge="1163782197#2" parking="true" duration="0"/>
    <stop edge="-51691749#4" parking="true" duration="0"/>
  </trip>
  <trip id="dianchang_taxi_3_dongchong" type="public_taxi" depart="71" departLane="best" from="-978658158#4" to="-51691749#4">
    <stop edge="1163782197#2" parking="true" duration="0"/>
    <stop edge="-51691749#4" parking="true" duration="0"/>
  </trip>
  <trip id="dianchang_taxi_4_dongchong" type="public_taxi" depart="72" departLane="best" from="-978658158#4" to="-51691749#4">
    <stop edge="1163782197#2" parking="true" duration="0"/>
    <stop edge="-51691749#4" parking="true" duration="0"/>
  </trip>
  <trip id="dianchang_taxi_5_dongchong" type="public_taxi" depart="73" departLane="best" from="-978658158#4" to="-51691749#4">
    <stop edge="1163782197#2" parking="true" duration="0"/>
    <stop edge="-51691749#4" parking="true" duration="0"/>
  </trip>
  <trip id="dianchang2_taxi_0_dongchong" type="public_taxi" depart="74" departLane="best" from="1163782197#2" to="543863877#1">
    <stop edge="1163782197#2" parking="true" duration="0"/>
    <stop edge="543863877#1" parking="true" duration="0"/>
  </trip>
  <trip id="dianchang2_taxi_1_dongchong" type="public_taxi" depart="75" departLane="best" from="1163782197#2" to="543863877#1">
    <stop edge="1163782197#2" parking="true" duration="0"/>
    <stop edge="543863877#1" parking="true" duration="0"/>
  </trip>
  <trip id="dianchang2_taxi_2_dongchong" type="public_taxi" depart="76" departLane="best" from="1163782197#2" to="543863877#1">
    <stop edge="1163782197#2" parking="true" duration="0"/>
    <stop edge="543863877#1" parking="true" duration="0"/>
  </trip>
  <trip id="dianchang2_taxi_3_dongchong" type="public_taxi" depart="77" departLane="best" from="1163782197#2" to="543863877#1">
    <stop edge="1163782197#2" parking="true" duration="0"/>
    <stop edge="543863877#1" parking="true" duration="0"/>
  </trip>
  <trip id="dianchang2_taxi_4_dongchong" type="public_taxi" depart="78" departLane="best" from="1163782197#2" to="543863877#1">
    <stop edge="1163782197#2" parking="true" duration="0"/>
    <stop edge="543863877#1" parking="true" duration="0"/>
  </trip>
  <trip id="dianchang2_taxi_5_dongchong" type="public_taxi" depart="79" departLane="best" from="1163782197#2" to="543863877#1">
    <stop edge="1163782197#2" parking="true" duration="0"/>
    <stop edge="543863877#1" parking="true" duration="0"/>
  </trip>
  <trip id="dianchang2_taxi_0_beibi" type="public_taxi" depart="80" departLane="best" from="1163782197#2" to="543863877#1">
    <stop edge="296185646#0" parking="true" duration="0"/>
    <stop edge="543863877#1" parking="true" duration="0"/>
    <stop edge="296185646#0" parking="true" duration="0"/>
    <stop edge="543863877#1" parking="true" duration="0"/>
    <stop edge="296185646#0" parking="true" duration="0"/>
    <stop edge="543863877#1" parking="true" duration="0"/>
    <stop edge="296185646#0" parking="true" duration="0"/>
    <stop edge="543863877#1" parking="true" duration="0"/>
    <stop edge="296185646#0" parking="true" duration="0"/>
    <stop edge="543863877#1" parking="true" duration="0"/>
  </trip>
  <trip id="dianchang2_taxi_1_beibi" type="public_taxi" depart="81" departLane="best" from="1163782197#2" to="543863877#1">
    <stop edge="296185646#0" parking="true" duration="0"/>
    <stop edge="543863877#1" parking="true" duration="0"/>
    <stop edge="296185646#0" parking="true" duration="0"/>
    <stop edge="543863877#1" parking="true" duration="0"/>
    <stop edge="296185646#0" parking="true" duration="0"/>
    <stop edge="543863877#1" parking="true" duration="0"/>
    <stop edge="296185646#0" parking="true" duration="0"/>
    <stop edge="543863877#1" parking="true" duration="0"/>
    <stop edge="296185646#0" parking="true" duration="0"/>
    <stop edge="543863877#1" parking="true" duration="0"/>
  </trip>
  <trip id="dianchang2_taxi_2_beibi" type="public_taxi" depart="82" departLane="best" from="1163782197#2" to="543863877#1">
    <stop edge="296185646#0" parking="true" duration="0"/>
    <stop edge="543863877#1" parking="true" duration="0"/>
    <stop edge="296185646#0" parking="true" duration="0"/>
    <stop edge="543863877#1" parking="true" duration="0"/>
    <stop edge="296185646#0" parking="true" duration="0"/>
    <stop edge="543863877#1" parking="true" duration="0"/>
    <stop edge="296185646#0" parking="true" duration="0"/>
    <stop edge="543863877#1" parking="true" duration="0"/>
    <stop edge="296185646#0" parking="true" duration="0"/>
    <stop edge="543863877#1" parking="true" duration="0"/>
  </trip>
  <trip id="dianchang2_taxi_3_beibi" type="public_taxi" depart="83" departLane="best" from="1163782197#2" to="543863877#1">
    <stop edge="296185646#0" parking="true" duration="0"/>
    <stop edge="543863877#1" parking="true" duration="0"/>
    <stop edge="296185646#0" parking="true" duration="0"/>
    <stop edge="543863877#1" parking="true" duration="0"/>
    <stop edge="296185646#0" parking="true" duration="0"/>
    <stop edge="543863877#1" parking="true" duration="0"/>
    <stop edge="296185646#0" parking="true" duration="0"/>
    <stop edge="543863877#1" parking="true" duration="0"/>
    <stop edge="296185646#0" parking="true" duration="0"/>
    <stop edge="543863877#1" parking="true" duration="0"/>
  </trip>
  <trip id="dianchang2_taxi_4_beibi" type="public_taxi" depart="84" departLane="best" from="1163782197#2" to="543863877#1">
    <stop edge="296185646#0" parking="true" duration="0"/>
    <stop edge="543863877#1" parking="true" duration="0"/>
    <stop edge="296185646#0" parking="true" duration="0"/>
    <stop edge="543863877#1" parking="true" duration="0"/>
    <stop edge="296185646#0" parking="true" duration="0"/>
    <stop edge="543863877#1" parking="true" duration="0"/>
    <stop edge="296185646#0" parking="true" duration="0"/>
    <stop edge="543863877#1" parking="true" duration="0"/>
    <stop edge="296185646#0" parking="true" duration="0"/>
    <stop edge="543863877#1" parking="true" duration="0"/>
  </trip>
  <trip id="dianchang2_taxi_5_beibi" type="public_taxi" depart="85" departLane="best" from="1163782197#2" to="543863877#1">
    <stop edge="296185646#0" parking="true" duration="0"/>
    <stop edge="543863877#1" parking="true" duration="0"/>
    <stop edge="296185646#0" parking="true" duration="0"/>
    <stop edge="543863877#1" parking="true" duration="0"/>
    <stop edge="296185646#0" parking="true" duration="0"/>
    <stop edge="543863877#1" parking="true" duration="0"/>
    <stop edge="296185646#0" parking="true" duration="0"/>
    <stop edge="543863877#1" parking="true" duration="0"/>
    <stop edge="296185646#0" parking="true" duration="0"/>
    <stop edge="543863877#1" parking="true" duration="0"/>
  </trip>
  <trip id="dianchang2_taxi_6_beibi" type="public_taxi" depart="86" departLane="best" from="1163782197#2" to="543863877#1">
    <stop edge="296185646#0" parking="true" duration="0"/>
    <stop edge="543863877#1" parking="true" duration="0"/>
    <stop edge="296185646#0" parking="true" duration="0"/>
    <stop edge="543863877#1" parking="true" duration="0"/>
    <stop edge="296185646#0" parking="true" duration="0"/>
    <stop edge="543863877#1" parking="true" duration="0"/>
    <stop edge="296185646#0" parking="true" duration="0"/>
    <stop edge="543863877#1" parking="true" duration="0"/>
    <stop edge="296185646#0" parking="true" duration="0"/>
    <stop edge="543863877#1" parking="true" duration="0"/>
  </trip>
  <trip id="dianchang2_taxi_7_beibi" type="public_taxi" depart="87" departLane="best" from="1163782197#2" to="543863877#1">
    <stop edge="296185646#0" parking="true" duration="0"/>
    <stop edge="543863877#1" parking="true" duration="0"/>
    <stop edge="296185646#0" parking="true" duration="0"/>
    <stop edge="543863877#1" parking="true" duration="0"/>
    <stop edge="296185646#0" parking="true" duration="0"/>
    <stop edge="543863877#1" parking="true" duration="0"/>
    <stop edge="296185646#0" parking="true" duration="0"/>
    <stop edge="543863877#1" parking="true" duration="0"/>
    <stop edge="296185646#0" parking="true" duration="0"/>
    <stop edge="543863877#1" parking="true" duration="0"/>
  </trip>
</routes>
