<?xml version="1.0" ?>
<routes xmlns:xsi="http://www.w3.org/2001/XMLSchema-instance" xsi:noNamespaceSchemaLocation="http://sumo.dlr.de/xsd/routes_file.xsd">
  <vType id="public_moped" vClass="moped" maxSpeed="40"/>
  <trip id="xiaofang_moped_0_beibi" type="public_moped" depart="32" departLane="best" from="-871617350#0" to="543863877#1">
    <stop edge="296185646#0" parking="true" duration="0"/>
    <stop edge="543863877#1" parking="true" duration="0"/>
    <stop edge="296185646#0" parking="true" duration="0"/>
    <stop edge="543863877#1" parking="true" duration="0"/>
    <stop edge="296185646#0" parking="true" duration="0"/>
    <stop edge="543863877#1" parking="true" duration="0"/>
    <stop edge="296185646#0" parking="true" duration="0"/>
    <stop edge="543863877#1" parking="true" duration="0"/>
    <stop edge="296185646#0" parking="true" duration="0"/>
    <stop edge="543863877#1" parking="true" duration="0"/>
    <stop edge="296185646#0" parking="true" duration="0"/>
    <stop edge="543863877#1" parking="true" duration="0"/>
    <stop edge="296185646#0" parking="true" duration="0"/>
    <stop edge="543863877#1" parking="true" duration="0"/>
    <stop edge="296185646#0" parking="true" duration="0"/>
    <stop edge="543863877#1" parking="true" duration="0"/>
    <stop edge="296185646#0" parking="true" duration="0"/>
    <stop edge="543863877#1" parking="true" duration="0"/>
    <stop edge="296185646#0" parking="true" duration="0"/>
    <stop edge="543863877#1" parking="true" duration="0"/>
    <stop edge="296185646#0" parking="true" duration="0"/>
    <stop edge="543863877#1" parking="true" duration="0"/>
    <stop edge="296185646#0" parking="true" duration="0"/>
    <stop edge="543863877#1" parking="true" duration="0"/>
    <stop edge="296185646#0" parking="true" duration="0"/>
    <stop edge="543863877#1" parking="true" duration="0"/>
    <stop edge="296185646#0" parking="true" duration="0"/>
    <stop edge="543863877#1" parking="true" duration="0"/>
    <stop edge="296185646#0" parking="true" duration="0"/>
    <stop edge="543863877#1" parking="true" duration="0"/>
    <stop edge="296185646#0" parking="true" duration="0"/>
    <stop edge="543863877#1" parking="true" duration="0"/>
    <stop edge="296185646#0" parking="true" duration="0"/>
    <stop edge="543863877#1" parking="true" duration="0"/>
    <stop edge="296185646#0" parking="true" duration="0"/>
    <stop edge="543863877#1" parking="true" duration="0"/>
    <stop edge="296185646#0" parking="true" duration="0"/>
    <stop edge="543863877#1" parking="true" duration="0"/>
    <stop edge="296185646#0" parking="true" duration="0"/>
    <stop edge="543863877#1" parking="true" duration="0"/>
    <stop edge="296185646#0" parking="true" duration="0"/>
    <stop edge="543863877#1" parking="true" duration="0"/>
    <stop edge="296185646#0" parking="true" duration="0"/>
    <stop edge="543863877#1" parking="true" duration="0"/>
    <stop edge="296185646#0" parking="true" duration="0"/>
    <stop edge="543863877#1" parking="true" duration="0"/>
    <stop edge="296185646#0" parking="true" duration="0"/>
    <stop edge="543863877#1" parking="true" duration="0"/>
    <stop edge="296185646#0" parking="true" duration="0"/>
    <stop edge="543863877#1" parking="true" duration="0"/>
    <stop edge="296185646#0" parking="true" duration="0"/>
    <stop edge="543863877#1" parking="true" duration="0"/>
    <stop edge="296185646#0" parking="true" duration="0"/>
    <stop edge="543863877#1" parking="true" duration="0"/>
    <stop edge="296185646#0" parking="true" duration="0"/>
    <stop edge="543863877#1" parking="true" duration="0"/>
    <stop edge="296185646#0" parking="true" duration="0"/>
    <stop edge="543863877#1" parking="true" duration="0"/>
    <stop edge="296185646#0" parking="true" duration="0"/>
    <stop edge="543863877#1" parking="true" duration="0"/>
    <stop edge="296185646#0" parking="true" duration="0"/>
    <stop edge="543863877#1" parking="true" duration="0"/>
    <stop edge="296185646#0" parking="true" duration="0"/>
    <stop edge="543863877#1" parking="true" duration="0"/>
    <stop edge="296185646#0" parking="true" duration="0"/>
    <stop edge="543863877#1" parking="true" duration="0"/>
    <stop edge="296185646#0" parking="true" duration="0"/>
    <stop edge="543863877#1" parking="true" duration="0"/>
    <stop edge="296185646#0" parking="true" duration="0"/>
    <stop edge="543863877#1" parking="true" duration="0"/>
    <stop edge="296185646#0" parking="true" duration="0"/>
    <stop edge="543863877#1" parking="true" duration="0"/>
    <stop edge="296185646#0" parking="true" duration="0"/>
    <stop edge="543863877#1" parking="true" duration="0"/>
    <stop edge="296185646#0" parking="true" duration="0"/>
    <stop edge="543863877#1" parking="true" duration="0"/>
    <stop edge="296185646#0" parking="true" duration="0"/>
    <stop edge="543863877#1" parking="true" duration="0"/>
    <stop edge="296185646#0" parking="true" duration="0"/>
    <stop edge="543863877#1" parking="true" duration="0"/>
    <stop edge="296185646#0" parking="true" duration="0"/>
    <stop edge="543863877#1" parking="true" duration="0"/>
    <stop edge="296185646#0" parking="true" duration="0"/>
    <stop edge="543863877#1" parking="true" duration="0"/>
    <stop edge="296185646#0" parking="true" duration="0"/>
    <stop edge="543863877#1" parking="true" duration="0"/>
    <stop edge="296185646#0" parking="true" duration="0"/>
    <stop edge="543863877#1" parking="true" duration="0"/>
    <stop edge="296185646#0" parking="true" duration="0"/>
    <stop edge="543863877#1" parking="true" duration="0"/>
    <stop edge="296185646#0" parking="true" duration="0"/>
    <stop edge="543863877#1" parking="true" duration="0"/>
    <stop edge="296185646#0" parking="true" duration="0"/>
    <stop edge="543863877#1" parking="true" duration="0"/>
    <stop edge="296185646#0" parking="true" duration="0"/>
    <stop edge="543863877#1" parking="true" duration="0"/>
    <stop edge="296185646#0" parking="true" duration="0"/>
    <stop edge="543863877#1" parking="true" duration="0"/>
    <stop edge="296185646#0" parking="true" duration="0"/>
    <stop edge="543863877#1" parking="true" duration="0"/>
    <stop edge="296185646#0" parking="true" duration="0"/>
    <stop edge="543863877#1" parking="true" duration="0"/>
    <stop edge="296185646#0" parking="true" duration="0"/>
    <stop edge="543863877#1" parking="true" duration="0"/>
    <stop edge="296185646#0" parking="true" duration="0"/>
    <stop edge="543863877#1" parking="true" duration="0"/>
    <stop edge="296185646#0" parking="true" duration="0"/>
    <stop edge="543863877#1" parking="true" duration="0"/>
    <stop edge="296185646#0" parking="true" duration="0"/>
    <stop edge="543863877#1" parking="true" duration="0"/>
    <stop edge="296185646#0" parking="true" duration="0"/>
    <stop edge="543863877#1" parking="true" duration="0"/>
    <stop edge="296185646#0" parking="true" duration="0"/>
    <stop edge="543863877#1" parking="true" duration="0"/>
    <stop edge="296185646#0" parking="true" duration="0"/>
    <stop edge="543863877#1" parking="true" duration="0"/>
    <stop edge="296185646#0" parking="true" duration="0"/>
    <stop edge="543863877#1" parking="true" duration="0"/>
    <stop edge="296185646#0" parking="true" duration="0"/>
    <stop edge="543863877#1" parking="true" duration="0"/>
    <stop edge="296185646#0" parking="true" duration="0"/>
    <stop edge="543863877#1" parking="true" duration="0"/>
    <stop edge="296185646#0" parking="true" duration="0"/>
    <stop edge="543863877#1" parking="true" duration="0"/>
    <stop edge="296185646#0" parking="true" duration="0"/>
    <stop edge="543863877#1" parking="true" duration="0"/>
    <stop edge="296185646#0" parking="true" duration="0"/>
    <stop edge="543863877#1" parking="true" duration="0"/>
    <stop edge="296185646#0" parking="true" duration="0"/>
    <stop edge="543863877#1" parking="true" duration="0"/>
    <stop edge="296185646#0" parking="true" duration="0"/>
    <stop edge="543863877#1" parking="true" duration="0"/>
    <stop edge="296185646#0" parking="true" duration="0"/>
    <stop edge="543863877#1" parking="true" duration="0"/>
    <stop edge="296185646#0" parking="true" duration="0"/>
    <stop edge="543863877#1" parking="true" duration="0"/>
    <stop edge="296185646#0" parking="true" duration="0"/>
    <stop edge="543863877#1" parking="true" duration="0"/>
    <stop edge="296185646#0" parking="true" duration="0"/>
    <stop edge="543863877#1" parking="true" duration="0"/>
    <stop edge="296185646#0" parking="true" duration="0"/>
    <stop edge="543863877#1" parking="true" duration="0"/>
    <stop edge="296185646#0" parking="true" duration="0"/>
    <stop edge="543863877#1" parking="true" duration="0"/>
    <stop edge="296185646#0" parking="true" duration="0"/>
    <stop edge="543863877#1" parking="true" duration="0"/>
    <stop edge="296185646#0" parking="true" duration="0"/>
    <stop edge="543863877#1" parking="true" duration="0"/>
    <stop edge="296185646#0" parking="true" duration="0"/>
    <stop edge="543863877#1" parking="true" duration="0"/>
    <stop edge="296185646#0" parking="true" duration="0"/>
    <stop edge="543863877#1" parking="true" duration="0"/>
    <stop edge="296185646#0" parking="true" duration="0"/>
    <stop edge="543863877#1" parking="true" duration="0"/>
    <stop edge="296185646#0" parking="true" duration="0"/>
    <stop edge="543863877#1" parking="true" duration="0"/>
    <stop edge="296185646#0" parking="true" duration="0"/>
    <stop edge="543863877#1" parking="true" duration="0"/>
    <stop edge="296185646#0" parking="true" duration="0"/>
    <stop edge="543863877#1" parking="true" duration="0"/>
    <stop edge="296185646#0" parking="true" duration="0"/>
    <stop edge="543863877#1" parking="true" duration="0"/>
    <stop edge="296185646#0" parking="true" duration="0"/>
    <stop edge="543863877#1" parking="true" duration="0"/>
    <stop edge="296185646#0" parking="true" duration="0"/>
    <stop edge="543863877#1" parking="true" duration="0"/>
    <stop edge="296185646#0" parking="true" duration="0"/>
    <stop edge="543863877#1" parking="true" duration="0"/>
    <stop edge="296185646#0" parking="true" duration="0"/>
    <stop edge="543863877#1" parking="true" duration="0"/>
    <stop edge="296185646#0" parking="true" duration="0"/>
    <stop edge="543863877#1" parking="true" duration="0"/>
    <stop edge="296185646#0" parking="true" duration="0"/>
    <stop edge="543863877#1" parking="true" duration="0"/>
    <stop edge="296185646#0" parking="true" duration="0"/>
    <stop edge="543863877#1" parking="true" duration="0"/>
    <stop edge="296185646#0" parking="true" duration="0"/>
    <stop edge="543863877#1" parking="true" duration="0"/>
    <stop edge="296185646#0" parking="true" duration="0"/>
    <stop edge="543863877#1" parking="true" duration="0"/>
    <stop edge="296185646#0" parking="true" duration="0"/>
    <stop edge="543863877#1" parking="true" duration="0"/>
    <stop edge="296185646#0" parking="true" duration="0"/>
    <stop edge="543863877#1" parking="true" duration="0"/>
    <stop edge="296185646#0" parking="true" duration="0"/>
    <stop edge="543863877#1" parking="true" duration="0"/>
    <stop edge="296185646#0" parking="true" duration="0"/>
    <stop edge="543863877#1" parking="true" duration="0"/>
    <stop edge="296185646#0" parking="true" duration="0"/>
    <stop edge="543863877#1" parking="true" duration="0"/>
    <stop edge="296185646#0" parking="true" duration="0"/>
    <stop edge="543863877#1" parking="true" duration="0"/>
    <stop edge="296185646#0" parking="true" duration="0"/>
    <stop edge="543863877#1" parking="true" duration="0"/>
    <stop edge="296185646#0" parking="true" duration="0"/>
    <stop edge="543863877#1" parking="true" duration="0"/>
    <stop edge="296185646#0" parking="true" duration="0"/>
    <stop edge="543863877#1" parking="true" duration="0"/>
    <stop edge="296185646#0" parking="true" duration="0"/>
    <stop edge="543863877#1" parking="true" duration="0"/>
    <stop edge="296185646#0" parking="true" duration="0"/>
    <stop edge="543863877#1" parking="true" duration="0"/>
    <stop edge="296185646#0" parking="true" duration="0"/>
    <stop edge="543863877#1" parking="true" duration="0"/>
    <stop edge="296185646#0" parking="true" duration="0"/>
    <stop edge="543863877#1" parking="true" duration="0"/>
    <stop edge="296185646#0" parking="true" duration="0"/>
    <stop edge="543863877#1" parking="true" duration="0"/>
    <stop edge="296185646#0" parking="true" duration="0"/>
    <stop edge="543863877#1" parking="true" duration="0"/>
    <stop edge="296185646#0" parking="true" duration="0"/>
    <stop edge="543863877#1" parking="true" duration="0"/>
    <stop edge="296185646#0" parking="true" duration="0"/>
    <stop edge="543863877#1" parking="true" duration="0"/>
    <stop edge="296185646#0" parking="true" duration="0"/>
    <stop edge="543863877#1" parking="true" duration="0"/>
    <stop edge="296185646#0" parking="true" duration="0"/>
    <stop edge="543863877#1" parking="true" duration="0"/>
    <stop edge="296185646#0" parking="true" duration="0"/>
    <stop edge="543863877#1" parking="true" duration="0"/>
    <stop edge="296185646#0" parking="true" duration="0"/>
    <stop edge="543863877#1" parking="true" duration="0"/>
    <stop edge="296185646#0" parking="true" duration="0"/>
    <stop edge="543863877#1" parking="true" duration="0"/>
    <stop edge="296185646#0" parking="true" duration="0"/>
    <stop edge="543863877#1" parking="true" duration="0"/>
    <stop edge="296185646#0" parking="true" duration="0"/>
    <stop edge="543863877#1" parking="true" duration="0"/>
    <stop edge="296185646#0" parking="true" duration="0"/>
    <stop edge="543863877#1" parking="true" duration="0"/>
    <stop edge="296185646#0" parking="true" duration="0"/>
    <stop edge="543863877#1" parking="true" duration="0"/>
    <stop edge="296185646#0" parking="true" duration="0"/>
    <stop edge="543863877#1" parking="true" duration="0"/>
    <stop edge="296185646#0" parking="true" duration="0"/>
    <stop edge="543863877#1" parking="true" duration="0"/>
    <stop edge="296185646#0" parking="true" duration="0"/>
    <stop edge="543863877#1" parking="true" duration="0"/>
    <stop edge="296185646#0" parking="true" duration="0"/>
    <stop edge="543863877#1" parking="true" duration="0"/>
    <stop edge="296185646#0" parking="true" duration="0"/>
    <stop edge="543863877#1" parking="true" duration="0"/>
    <stop edge="296185646#0" parking="true" duration="0"/>
    <stop edge="543863877#1" parking="true" duration="0"/>
    <stop edge="296185646#0" parking="true" duration="0"/>
    <stop edge="543863877#1" parking="true" duration="0"/>
    <stop edge="296185646#0" parking="true" duration="0"/>
    <stop edge="543863877#1" parking="true" duration="0"/>
    <stop edge="296185646#0" parking="true" duration="0"/>
    <stop edge="543863877#1" parking="true" duration="0"/>
    <stop edge="296185646#0" parking="true" duration="0"/>
    <stop edge="543863877#1" parking="true" duration="0"/>
    <stop edge="296185646#0" parking="true" duration="0"/>
    <stop edge="543863877#1" parking="true" duration="0"/>
    <stop edge="296185646#0" parking="true" duration="0"/>
    <stop edge="543863877#1" parking="true" duration="0"/>
    <stop edge="296185646#0" parking="true" duration="0"/>
    <stop edge="543863877#1" parking="true" duration="0"/>
    <stop edge="296185646#0" parking="true" duration="0"/>
    <stop edge="543863877#1" parking="true" duration="0"/>
    <stop edge="296185646#0" parking="true" duration="0"/>
    <stop edge="543863877#1" parking="true" duration="0"/>
    <stop edge="296185646#0" parking="true" duration="0"/>
    <stop edge="543863877#1" parking="true" duration="0"/>
    <stop edge="296185646#0" parking="true" duration="0"/>
    <stop edge="543863877#1" parking="true" duration="0"/>
    <stop edge="296185646#0" parking="true" duration="0"/>
    <stop edge="543863877#1" parking="true" duration="0"/>
    <stop edge="296185646#0" parking="true" duration="0"/>
    <stop edge="543863877#1" parking="true" duration="0"/>
    <stop edge="296185646#0" parking="true" duration="0"/>
    <stop edge="543863877#1" parking="true" duration="0"/>
    <stop edge="296185646#0" parking="true" duration="0"/>
    <stop edge="543863877#1" parking="true" duration="0"/>
    <stop edge="296185646#0" parking="true" duration="0"/>
    <stop edge="543863877#1" parking="true" duration="0"/>
    <stop edge="296185646#0" parking="true" duration="0"/>
    <stop edge="543863877#1" parking="true" duration="0"/>
    <stop edge="296185646#0" parking="true" duration="0"/>
    <stop edge="543863877#1" parking="true" duration="0"/>
    <stop edge="296185646#0" parking="true" duration="0"/>
    <stop edge="543863877#1" parking="true" duration="0"/>
    <stop edge="296185646#0" parking="true" duration="0"/>
    <stop edge="543863877#1" parking="true" duration="0"/>
    <stop edge="296185646#0" parking="true" duration="0"/>
    <stop edge="543863877#1" parking="true" duration="0"/>
    <stop edge="296185646#0" parking="true" duration="0"/>
    <stop edge="543863877#1" parking="true" duration="0"/>
    <stop edge="296185646#0" parking="true" duration="0"/>
    <stop edge="543863877#1" parking="true" duration="0"/>
    <stop edge="296185646#0" parking="true" duration="0"/>
    <stop edge="543863877#1" parking="true" duration="0"/>
    <stop edge="296185646#0" parking="true" duration="0"/>
    <stop edge="543863877#1" parking="true" duration="0"/>
    <stop edge="296185646#0" parking="true" duration="0"/>
    <stop edge="543863877#1" parking="true" duration="0"/>
    <stop edge="296185646#0" parking="true" duration="0"/>
    <stop edge="543863877#1" parking="true" duration="0"/>
    <stop edge="296185646#0" parking="true" duration="0"/>
    <stop edge="543863877#1" parking="true" duration="0"/>
    <stop edge="296185646#0" parking="true" duration="0"/>
    <stop edge="543863877#1" parking="true" duration="0"/>
    <stop edge="296185646#0" parking="true" duration="0"/>
    <stop edge="543863877#1" parking="true" duration="0"/>
    <stop edge="296185646#0" parking="true" duration="0"/>
    <stop edge="543863877#1" parking="true" duration="0"/>
    <stop edge="296185646#0" parking="true" duration="0"/>
    <stop edge="543863877#1" parking="true" duration="0"/>
    <stop edge="296185646#0" parking="true" duration="0"/>
    <stop edge="543863877#1" parking="true" duration="0"/>
    <stop edge="296185646#0" parking="true" duration="0"/>
    <stop edge="543863877#1" parking="true" duration="0"/>
    <stop edge="296185646#0" parking="true" duration="0"/>
    <stop edge="543863877#1" parking="true" duration="0"/>
    <stop edge="296185646#0" parking="true" duration="0"/>
    <stop edge="543863877#1" parking="true" duration="0"/>
    <stop edge="296185646#0" parking="true" duration="0"/>
    <stop edge="543863877#1" parking="true" duration="0"/>
    <stop edge="296185646#0" parking="true" duration="0"/>
    <stop edge="543863877#1" parking="true" duration="0"/>
    <stop edge="296185646#0" parking="true" duration="0"/>
    <stop edge="543863877#1" parking="true" duration="0"/>
    <stop edge="296185646#0" parking="true" duration="0"/>
    <stop edge="543863877#1" parking="true" duration="0"/>
    <stop edge="296185646#0" parking="true" duration="0"/>
    <stop edge="543863877#1" parking="true" duration="0"/>
    <stop edge="296185646#0" parking="true" duration="0"/>
    <stop edge="543863877#1" parking="true" duration="0"/>
    <stop edge="296185646#0" parking="true" duration="0"/>
    <stop edge="543863877#1" parking="true" duration="0"/>
    <stop edge="296185646#0" parking="true" duration="0"/>
    <stop edge="543863877#1" parking="true" duration="0"/>
    <stop edge="296185646#0" parking="true" duration="0"/>
    <stop edge="543863877#1" parking="true" duration="0"/>
    <stop edge="296185646#0" parking="true" duration="0"/>
    <stop edge="543863877#1" parking="true" duration="0"/>
    <stop edge="296185646#0" parking="true" duration="0"/>
    <stop edge="543863877#1" parking="true" duration="0"/>
    <stop edge="296185646#0" parking="true" duration="0"/>
    <stop edge="543863877#1" parking="true" duration="0"/>
    <stop edge="296185646#0" parking="true" duration="0"/>
    <stop edge="543863877#1" parking="true" duration="0"/>
    <stop edge="296185646#0" parking="true" duration="0"/>
    <stop edge="543863877#1" parking="true" duration="0"/>
    <stop edge="296185646#0" parking="true" duration="0"/>
    <stop edge="543863877#1" parking="true" duration="0"/>
    <stop edge="296185646#0" parking="true" duration="0"/>
    <stop edge="543863877#1" parking="true" duration="0"/>
    <stop edge="296185646#0" parking="true" duration="0"/>
    <stop edge="543863877#1" parking="true" duration="0"/>
    <stop edge="296185646#0" parking="true" duration="0"/>
    <stop edge="543863877#1" parking="true" duration="0"/>
    <stop edge="296185646#0" parking="true" duration="0"/>
    <stop edge="543863877#1" parking="true" duration="0"/>
    <stop edge="296185646#0" parking="true" duration="0"/>
    <stop edge="543863877#1" parking="true" duration="0"/>
    <stop edge="296185646#0" parking="true" duration="0"/>
    <stop edge="543863877#1" parking="true" duration="0"/>
    <stop edge="296185646#0" parking="true" duration="0"/>
    <stop edge="543863877#1" parking="true" duration="0"/>
    <stop edge="296185646#0" parking="true" duration="0"/>
    <stop edge="543863877#1" parking="true" duration="0"/>
    <stop edge="296185646#0" parking="true" duration="0"/>
    <stop edge="543863877#1" parking="true" duration="0"/>
    <stop edge="296185646#0" parking="true" duration="0"/>
    <stop edge="543863877#1" parking="true" duration="0"/>
    <stop edge="296185646#0" parking="true" duration="0"/>
    <stop edge="543863877#1" parking="true" duration="0"/>
    <stop edge="296185646#0" parking="true" duration="0"/>
    <stop edge="543863877#1" parking="true" duration="0"/>
    <stop edge="296185646#0" parking="true" duration="0"/>
    <stop edge="543863877#1" parking="true" duration="0"/>
    <stop edge="296185646#0" parking="true" duration="0"/>
    <stop edge="543863877#1" parking="true" duration="0"/>
    <stop edge="296185646#0" parking="true" duration="0"/>
    <stop edge="543863877#1" parking="true" duration="0"/>
    <stop edge="296185646#0" parking="true" duration="0"/>
    <stop edge="543863877#1" parking="true" duration="0"/>
    <stop edge="296185646#0" parking="true" duration="0"/>
    <stop edge="543863877#1" parking="true" duration="0"/>
    <stop edge="296185646#0" parking="true" duration="0"/>
    <stop edge="543863877#1" parking="true" duration="0"/>
    <stop edge="296185646#0" parking="true" duration="0"/>
    <stop edge="543863877#1" parking="true" duration="0"/>
    <stop edge="296185646#0" parking="true" duration="0"/>
    <stop edge="543863877#1" parking="true" duration="0"/>
    <stop edge="296185646#0" parking="true" duration="0"/>
    <stop edge="543863877#1" parking="true" duration="0"/>
    <stop edge="296185646#0" parking="true" duration="0"/>
    <stop edge="543863877#1" parking="true" duration="0"/>
    <stop edge="296185646#0" parking="true" duration="0"/>
    <stop edge="543863877#1" parking="true" duration="0"/>
    <stop edge="296185646#0" parking="true" duration="0"/>
    <stop edge="543863877#1" parking="true" duration="0"/>
    <stop edge="296185646#0" parking="true" duration="0"/>
    <stop edge="543863877#1" parking="true" duration="0"/>
    <stop edge="296185646#0" parking="true" duration="0"/>
    <stop edge="543863877#1" parking="true" duration="0"/>
    <stop edge="296185646#0" parking="true" duration="0"/>
    <stop edge="543863877#1" parking="true" duration="0"/>
    <stop edge="296185646#0" parking="true" duration="0"/>
    <stop edge="543863877#1" parking="true" duration="0"/>
    <stop edge="296185646#0" parking="true" duration="0"/>
    <stop edge="543863877#1" parking="true" duration="0"/>
    <stop edge="296185646#0" parking="true" duration="0"/>
    <stop edge="543863877#1" parking="true" duration="0"/>
    <stop edge="296185646#0" parking="true" duration="0"/>
    <stop edge="543863877#1" parking="true" duration="0"/>
    <stop edge="296185646#0" parking="true" duration="0"/>
    <stop edge="543863877#1" parking="true" duration="0"/>
    <stop edge="296185646#0" parking="true" duration="0"/>
    <stop edge="543863877#1" parking="true" duration="0"/>
    <stop edge="296185646#0" parking="true" duration="0"/>
    <stop edge="543863877#1" parking="true" duration="0"/>
    <stop edge="296185646#0" parking="true" duration="0"/>
    <stop edge="543863877#1" parking="true" duration="0"/>
    <stop edge="296185646#0" parking="true" duration="0"/>
    <stop edge="543863877#1" parking="true" duration="0"/>
    <stop edge="296185646#0" parking="true" duration="0"/>
    <stop edge="543863877#1" parking="true" duration="0"/>
    <stop edge="296185646#0" parking="true" duration="0"/>
    <stop edge="543863877#1" parking="true" duration="0"/>
    <stop edge="296185646#0" parking="true" duration="0"/>
    <stop edge="543863877#1" parking="true" duration="0"/>
    <stop edge="296185646#0" parking="true" duration="0"/>
    <stop edge="543863877#1" parking="true" duration="0"/>
    <stop edge="296185646#0" parking="true" duration="0"/>
    <stop edge="543863877#1" parking="true" duration="0"/>
    <stop edge="296185646#0" parking="true" duration="0"/>
    <stop edge="543863877#1" parking="true" duration="0"/>
    <stop edge="296185646#0" parking="true" duration="0"/>
    <stop edge="543863877#1" parking="true" duration="0"/>
    <stop edge="296185646#0" parking="true" duration="0"/>
    <stop edge="543863877#1" parking="true" duration="0"/>
    <stop edge="296185646#0" parking="true" duration="0"/>
    <stop edge="543863877#1" parking="true" duration="0"/>
    <stop edge="296185646#0" parking="true" duration="0"/>
    <stop edge="543863877#1" parking="true" duration="0"/>
    <stop edge="296185646#0" parking="true" duration="0"/>
    <stop edge="543863877#1" parking="true" duration="0"/>
    <stop edge="296185646#0" parking="true" duration="0"/>
    <stop edge="543863877#1" parking="true" duration="0"/>
    <stop edge="296185646#0" parking="true" duration="0"/>
    <stop edge="543863877#1" parking="true" duration="0"/>
    <stop edge="296185646#0" parking="true" duration="0"/>
    <stop edge="543863877#1" parking="true" duration="0"/>
    <stop edge="296185646#0" parking="true" duration="0"/>
    <stop edge="543863877#1" parking="true" duration="0"/>
    <stop edge="296185646#0" parking="true" duration="0"/>
    <stop edge="543863877#1" parking="true" duration="0"/>
    <stop edge="296185646#0" parking="true" duration="0"/>
    <stop edge="543863877#1" parking="true" duration="0"/>
    <stop edge="296185646#0" parking="true" duration="0"/>
    <stop edge="543863877#1" parking="true" duration="0"/>
    <stop edge="296185646#0" parking="true" duration="0"/>
    <stop edge="543863877#1" parking="true" duration="0"/>
    <stop edge="296185646#0" parking="true" duration="0"/>
    <stop edge="543863877#1" parking="true" duration="0"/>
    <stop edge="296185646#0" parking="true" duration="0"/>
    <stop edge="543863877#1" parking="true" duration="0"/>
    <stop edge="296185646#0" parking="true" duration="0"/>
    <stop edge="543863877#1" parking="true" duration="0"/>
    <stop edge="296185646#0" parking="true" duration="0"/>
    <stop edge="543863877#1" parking="true" duration="0"/>
    <stop edge="296185646#0" parking="true" duration="0"/>
    <stop edge="543863877#1" parking="true" duration="0"/>
    <stop edge="296185646#0" parking="true" duration="0"/>
    <stop edge="543863877#1" parking="true" duration="0"/>
    <stop edge="296185646#0" parking="true" duration="0"/>
    <stop edge="543863877#1" parking="true" duration="0"/>
    <stop edge="296185646#0" parking="true" duration="0"/>
    <stop edge="543863877#1" parking="true" duration="0"/>
    <stop edge="296185646#0" parking="true" duration="0"/>
    <stop edge="543863877#1" parking="true" duration="0"/>
    <stop edge="296185646#0" parking="true" duration="0"/>
    <stop edge="543863877#1" parking="true" duration="0"/>
    <stop edge="296185646#0" parking="true" duration="0"/>
    <stop edge="543863877#1" parking="true" duration="0"/>
    <stop edge="296185646#0" parking="true" duration="0"/>
    <stop edge="543863877#1" parking="true" duration="0"/>
    <stop edge="296185646#0" parking="true" duration="0"/>
    <stop edge="543863877#1" parking="true" duration="0"/>
    <stop edge="296185646#0" parking="true" duration="0"/>
    <stop edge="543863877#1" parking="true" duration="0"/>
    <stop edge="296185646#0" parking="true" duration="0"/>
    <stop edge="543863877#1" parking="true" duration="0"/>
    <stop edge="296185646#0" parking="true" duration="0"/>
    <stop edge="543863877#1" parking="true" duration="0"/>
    <stop edge="296185646#0" parking="true" duration="0"/>
    <stop edge="543863877#1" parking="true" duration="0"/>
    <stop edge="296185646#0" parking="true" duration="0"/>
    <stop edge="543863877#1" parking="true" duration="0"/>
    <stop edge="296185646#0" parking="true" duration="0"/>
    <stop edge="543863877#1" parking="true" duration="0"/>
    <stop edge="296185646#0" parking="true" duration="0"/>
    <stop edge="543863877#1" parking="true" duration="0"/>
    <stop edge="296185646#0" parking="true" duration="0"/>
    <stop edge="543863877#1" parking="true" duration="0"/>
    <stop edge="296185646#0" parking="true" duration="0"/>
    <stop edge="543863877#1" parking="true" duration="0"/>
    <stop edge="296185646#0" parking="true" duration="0"/>
    <stop edge="543863877#1" parking="true" duration="0"/>